McPAT (version 1.0 of Aug, 2013) is computing the target processor...
 
DB write error: -30977
DB write error: -30977
DB write error: -30977
DB write error: -30977
DB write error: -30977
DB write error: -30977
DB write error: -30977
DB write error: -30977
DB write error: -30977
DB write error: -30977
DB write error: -30977
DB write error: -30977
DB write error: -30977
DB write error: -30977
DB write error: -30977
DB write error: -30977
DB write error: -30977
DB write error: -30977
DB write error: -30977
DB write error: -30977
DB write error: -30977
DB write error: -30977
DB write error: -30977
DB write error: -30977
DB write error: -30977
DB write error: -30977
DB write error: -30977
DB write error: -30977
DB write error: -30977
DB write error: -30977
DB write error: -30977
DB write error: -30977
DB write error: -30977
DB write error: -30977
DB write error: -30977
DB write error: -30977
DB write error: -30977
DB write error: -30977
DB write error: -30977
DB write error: -30977
DB write error: -30977
DB write error: -30977
DB write error: -30977
DB write error: -30977
DB write error: -30977
DB write error: -30977
DB write error: -30977
DB write error: -30977
DB write error: -30977
DB write error: -30977
DB write error: -30977
DB write error: -30977
DB write error: -30977
DB write error: -30977
DB write error: -30977
DB write error: -30977
DB write error: -30977
DB write error: -30977
DB write error: -30977
DB write error: -30977
DB write error: -30977
DB write error: -30977
DB write error: -30977
DB write error: -30977
DB write error: -30977
DB write error: -30977
DB write error: -30977
DB write error: -30977
DB write error: -30977
DB write error: -30977
DB write error: -30977
DB write error: -30977
DB write error: -30977
DB write error: -30977
DB write error: -30977
DB write error: -30977
DB write error: -30977
DB write error: -30977
DB write error: -30977
DB write error: -30977
DB write error: -30977
DB write error: -30977
DB write error: -30977
DB write error: -30977
DB write error: -30977
DB write error: -30977
DB write error: -30977
DB write error: -30977
DB write error: -30977
DB write error: -30977
DB write error: -30977
DB write error: -30977
DB write error: -30977
DB write error: -30977
DB write error: -30977
DB write error: -30977
DB write error: -30977
DB write error: -30977
DB write error: -30977
DB write error: -30977
DB write error: -30977
DB write error: -30977
DB write error: -30977
DB write error: -30977
DB write error: -30977
DB write error: -30977
DB write error: -30977
DB write error: -30977
DB write error: -30977
DB write error: -30977
DB write error: -30977
DB write error: -30977
DB write error: -30977
DB write error: -30977
DB write error: -30977
DB write error: -30977
DB write error: -30977
DB write error: -30977
DB write error: -30977
DB write error: -30977
DB write error: -30977
DB write error: -30977
DB write error: -30977
DB write error: -30977
DB write error: -30977
DB write error: -30977
DB write error: -30977
DB write error: -30977
DB write error: -30977
DB write error: -30977
DB write error: -30977
DB write error: -30977
DB write error: -30977
DB write error: -30977
DB write error: -30977
DB write error: -30977
DB write error: -30977
DB write error: -30977
DB write error: -30977
DB write error: -30977
DB write error: -30977
DB write error: -30977
DB write error: -30977
DB write error: -30977
DB write error: -30977
DB write error: -30977
DB write error: -30977
DB write error: -30977
DB write error: -30977
DB write error: -30977
DB write error: -30977
DB write error: -30977
DB write error: -30977
DB write error: -30977
DB write error: -30977
DB write error: -30977
DB write error: -30977
DB write error: -30977
DB write error: -30977
DB write error: -30977
DB write error: -30977
DB write error: -30977
DB write error: -30977
DB write error: -30977
DB write error: -30977
DB write error: -30977
DB write error: -30977
DB write error: -30977
DB write error: -30977
DB write error: -30977
DB write error: -30977
DB write error: -30977
DB write error: -30977
DB write error: -30977
DB write error: -30977
DB write error: -30977
DB write error: -30977
DB write error: -30977
DB write error: -30977
DB write error: -30977
DB write error: -30977
DB write error: -30977
DB write error: -30977
DB write error: -30977
DB write error: -30977
DB write error: -30977
DB write error: -30977
DB write error: -30977
DB write error: -30977
DB write error: -30977
DB write error: -30977
DB write error: -30977
DB write error: -30977
DB write error: -30977
DB write error: -30977
DB write error: -30977
DB write error: -30977
DB write error: -30977
DB write error: -30977
DB write error: -30977
DB write error: -30977
DB write error: -30977
DB write error: -30977
DB write error: -30977
DB write error: -30977
DB write error: -30977
DB write error: -30977
DB write error: -30977
DB write error: -30977
DB write error: -30977
DB write error: -30977
DB write error: -30977
DB write error: -30977
DB write error: -30977
DB write error: -30977
DB write error: -30977
DB write error: -30977
DB write error: -30977
DB write error: -30977
DB write error: -30977
DB write error: -30977
DB write error: -30977
DB write error: -30977
DB write error: -30977
DB write error: -30977
DB write error: -30977
DB write error: -30977
DB write error: -30977
DB write error: -30977
DB write error: -30977
DB write error: -30977
DB write error: -30977
DB write error: -30977
DB write error: -30977
DB write error: -30977
DB write error: -30977
DB write error: -30977
DB write error: -30977
DB write error: -30977
DB write error: -30977
DB write error: -30977
DB write error: -30977
DB write error: -30977
DB write error: -30977
DB write error: -30977
DB write error: -30977
DB write error: -30977
DB write error: -30977
DB write error: -30977
DB write error: -30977
DB write error: -30977
DB write error: -30977
DB write error: -30977
DB write error: -30977
DB write error: -30977
DB write error: -30977
DB write error: -30977
DB write error: -30977
DB write error: -30977
DB write error: -30977
DB write error: -30977
DB write error: -30977
DB write error: -30977
DB write error: -30977
DB write error: -30977
DB write error: -30977
DB write error: -30977
DB write error: -30977
DB write error: -30977
DB write error: -30977
DB write error: -30977
DB write error: -30977
DB write error: -30977
DB write error: -30977
DB write error: -30977
DB write error: -30977
DB write error: -30977
DB write error: -30977
DB write error: -30977
DB write error: -30977
DB write error: -30977
DB write error: -30977
DB write error: -30977
DB write error: -30977
DB write error: -30977
DB write error: -30977
DB write error: -30977
DB write error: -30977
DB write error: -30977
DB write error: -30977
DB write error: -30977
DB write error: -30977
DB write error: -30977
DB write error: -30977
DB write error: -30977
DB write error: -30977
DB write error: -30977
DB write error: -30977
DB write error: -30977
DB write error: -30977
DB write error: -30977
DB write error: -30977
DB write error: -30977
DB write error: -30977
DB write error: -30977
DB write error: -30977
DB write error: -30977
DB write error: -30977
DB write error: -30977
DB write error: -30977
DB write error: -30977
DB write error: -30977
DB write error: -30977
DB write error: -30977
DB write error: -30977
DB write error: -30977
DB write error: -30977
DB write error: -30977
DB write error: -30977
DB write error: -30977
DB write error: -30977
DB write error: -30977
DB write error: -30977
DB write error: -30977
DB write error: -30977
DB write error: -30977
DB write error: -30977
DB write error: -30977
DB write error: -30977
DB write error: -30977
DB write error: -30977
DB write error: -30977
DB write error: -30977
DB write error: -30977
DB write error: -30977
DB write error: -30977
DB write error: -30977
DB write error: -30977
DB write error: -30977
DB write error: -30977
DB write error: -30977
DB write error: -30977
DB write error: -30977
DB write error: -30977
DB write error: -30977
DB write error: -30977
DB write error: -30977
DB write error: -30977
DB write error: -30977
DB write error: -30977
DB write error: -30977
DB write error: -30977
DB write error: -30977
DB write error: -30977
DB write error: -30977
DB write error: -30977
DB write error: -30977
DB write error: -30977
DB write error: -30977
DB write error: -30977
DB write error: -30977
DB write error: -30977
DB write error: -30977
DB write error: -30977
DB write error: -30977
DB write error: -30977
DB write error: -30977
DB write error: -30977
DB write error: -30977
DB write error: -30977
DB write error: -30977
DB write error: -30977
DB write error: -30977
DB write error: -30977
DB write error: -30977
DB write error: -30977
DB write error: -30977
DB write error: -30977
DB write error: -30977
DB write error: -30977
DB write error: -30977
DB write error: -30977
DB write error: -30977
DB write error: -30977
DB write error: -30977
DB write error: -30977
DB write error: -30977
DB write error: -30977

McPAT (version 1.0 of Aug, 2013) results  (current print level is 5)
*****************************************************************************************
  Technology 45 nm
  Using Long Channel Devices When Appropriate
  Interconnect metal projection= aggressive interconnect technology projection
  Core clock Rate(MHz) 2660

*****************************************************************************************
Processor: 
  Area = 162.557 mm^2
  Peak Power = 97.0775 W
  Total Leakage = 31.17 W
  Peak Dynamic = 65.9074 W
  Subthreshold Leakage = 29.7528 W
  Subthreshold Leakage with power gating = 13.1909 W
  Gate Leakage = 1.4172 W
  Runtime Dynamic = 11.2452 W

  Total Cores: 4 cores 
  Device Type= ITRS high performance device type
    Area = 99.4245 mm^2
    Peak Dynamic = 65.8582 W
    Subthreshold Leakage = 22.8884 W
    Subthreshold Leakage with power gating = 9.49985 W
    Gate Leakage = 1.36269 W
    Runtime Dynamic = 11.2065 W

  Total L3s: 
  Device Type= ITRS high performance device type
    Area = 61.9075 mm^2
    Peak Dynamic = 0.049282 W
    Subthreshold Leakage = 6.80085 W
    Subthreshold Leakage with power gating = 3.32364 W
    Gate Leakage = 0.0484137 W
    Runtime Dynamic = 0.0387517 W

  Total NoCs (Network/Bus): 
  Device Type= ITRS high performance device type
    Area = 1.22514 mm^2
    Peak Dynamic = 0 W
    Subthreshold Leakage = 0.0636072 W
    Subthreshold Leakage with power gating = 0.0238527 W
    Gate Leakage = 0.00609971 W
    Runtime Dynamic = 0 W

*****************************************************************************************
Core:
      Area = 23.9338 mm^2
      Peak Dynamic = 16.4363 W
      Subthreshold Leakage = 5.58962 W
      Subthreshold Leakage with power gating = 2.29945 W
      Gate Leakage = 0.331933 W
      Runtime Dynamic = 2.80238 W

      Instruction Fetch Unit:
        Area = 4.0972 mm^2
        Peak Dynamic = 4.10453 W
        Subthreshold Leakage = 0.752505 W
        Subthreshold Leakage with power gating = 0.333996 W
        Gate Leakage = 0.0413555 W
        Runtime Dynamic = 0.192856 W

          Instruction Cache:
            Area = 1.38348 mm^2
            Peak Dynamic = 1.75558 W
            Subthreshold Leakage = 0.186939 W
            Subthreshold Leakage with power gating = 0.105839 W
            Gate Leakage = 0.0122386 W
            Runtime Dynamic = 0.00624868 W

          Branch Target Buffer:
            Area = 0.64954 mm^2
            Peak Dynamic = 0.177867 W
            Subthreshold Leakage = 0.0811682 W
            Subthreshold Leakage with power gating = 0.0435357 W
            Gate Leakage = 0.00272758 W
            Runtime Dynamic = 0.00233354 W

          Branch Predictor:
            Area = 0.138516 mm^2
            Peak Dynamic = 0.0597838 W
            Subthreshold Leakage = 0.0199703 W
            Subthreshold Leakage with power gating = 0.0103282 W
            Gate Leakage = 0.000757657 W
            Runtime Dynamic = 0.00130236 W

              Global Predictor:
                Area = 0.0435221 mm^2
                Peak Dynamic = 0.0168831 W
                Subthreshold Leakage = 0.00759719 W
                Subthreshold Leakage with power gating = 0.0039236 W
                Gate Leakage = 0.000278362 W
                Runtime Dynamic = 0.000237556 W

              Local Predictor:
              L1_Local Predictor:
                Area = 0.0257064 mm^2
                Peak Dynamic = 0.0142575 W
                Subthreshold Leakage = 0.00384344 W
                Subthreshold Leakage with power gating = 0.00198631 W
                Gate Leakage = 0.000154548 W
                Runtime Dynamic = 0.000205348 W

              L2_Local Predictor:
                Area = 0.0151917 mm^2
                Peak Dynamic = 0.00527447 W
                Subthreshold Leakage = 0.00181347 W
                Subthreshold Leakage with power gating = 0.000957045 W
                Gate Leakage = 8.00196e-05 W
                Runtime Dynamic = 7.86383e-05 W

              Chooser:
                Area = 0.0435221 mm^2
                Peak Dynamic = 0.0168831 W
                Subthreshold Leakage = 0.00759719 W
                Subthreshold Leakage with power gating = 0.0039236 W
                Gate Leakage = 0.000278362 W
                Runtime Dynamic = 0.000237556 W

              RAS:
                Area = 0.0105732 mm^2
                Peak Dynamic = 0.0117602 W
                Subthreshold Leakage = 0.000932505 W
                Subthreshold Leakage with power gating = 0.000494733 W
                Gate Leakage = 4.63858e-05 W
                Runtime Dynamic = 0.000621897 W

          Instruction Buffer:
            Area = 0.0226323 mm^2
            Peak Dynamic = 0.606827 W
            Subthreshold Leakage = 0.00151885 W
            Subthreshold Leakage with power gating = 0.000701682 W
            Gate Leakage = 6.83558e-05 W
            Runtime Dynamic = 0.041618 W

          Instruction Decoder:
            Area = 1.85799 mm^2
            Peak Dynamic = 1.37404 W
            Subthreshold Leakage = 0.442943 W
            Subthreshold Leakage with power gating = 0.166104 W
            Gate Leakage = 0.0222493 W
            Runtime Dynamic = 0.141353 W

      Renaming Unit:
        Area = 0.369768 mm^2
        Peak Dynamic = 4.56169 W
        Subthreshold Leakage = 0.070483 W
        Subthreshold Leakage with power gating = 0.0362779 W
        Gate Leakage = 0.00863632 W
        Runtime Dynamic = 0.377881 W

          Int Front End RAT:
            Area = 0.114751 mm^2
            Peak Dynamic = 0.86945 W
            Subthreshold Leakage = 0.00611897 W
            Subthreshold Leakage with power gating = 0.00348781 W
            Gate Leakage = 0.00038343 W
            Runtime Dynamic = 0.0782206 W

          FP Front End RAT:
            Area = 0.168486 mm^2
            Peak Dynamic = 3.33511 W
            Subthreshold Leakage = 0.0437281 W
            Subthreshold Leakage with power gating = 0.024925 W
            Gate Leakage = 0.00489731 W
            Runtime Dynamic = 0.287938 W

          Free List:
            Area = 0.0414755 mm^2
            Peak Dynamic = 0.0401324 W
            Subthreshold Leakage = 0.000670426 W
            Subthreshold Leakage with power gating = 0.000377987 W
            Gate Leakage = 4.15911e-05 W
            Runtime Dynamic = 0.011722 W

      Load Store Unit:
        Area = 3.12792 mm^2
        Peak Dynamic = 1.50003 W
        Subthreshold Leakage = 0.319183 W
        Subthreshold Leakage with power gating = 0.174979 W
        Gate Leakage = 0.0234193 W
        Runtime Dynamic = 0.120229 W

          Data Cache:
            Area = 2.14967 mm^2
            Peak Dynamic = 1.44503 W
            Subthreshold Leakage = 0.255235 W
            Subthreshold Leakage with power gating = 0.142422 W
            Gate Leakage = 0.0162066 W
            Runtime Dynamic = 0.0514204 W

          LoadQ:
            Area = 0.0836782 mm^2
            Peak Dynamic = 0.0116002 W
            Subthreshold Leakage = 0.00941961 W
            Subthreshold Leakage with power gating = 0.00536918 W
            Gate Leakage = 0.00059896 W
            Runtime Dynamic = 0.0116002 W

          StoreQ:
            Area = 0.322079 mm^2
            Peak Dynamic = 0.0286042 W
            Subthreshold Leakage = 0.0345621 W
            Subthreshold Leakage with power gating = 0.0197004 W
            Gate Leakage = 0.00329971 W
            Runtime Dynamic = 0.0572085 W

      Memory Management Unit:
        Area = 0.434579 mm^2
        Peak Dynamic = 0.340646 W
        Subthreshold Leakage = 0.0769113 W
        Subthreshold Leakage with power gating = 0.0399462 W
        Gate Leakage = 0.00813591 W
        Runtime Dynamic = 0.0201742 W

          Itlb:
            Area = 0.301552 mm^2
            Peak Dynamic = 0.164597 W
            Subthreshold Leakage = 0.0413758 W
            Subthreshold Leakage with power gating = 0.0235842 W
            Gate Leakage = 0.00393464 W
            Runtime Dynamic = 0.00916455 W

          Dtlb:
            Area = 0.0879726 mm^2
            Peak Dynamic = 0.0101517 W
            Subthreshold Leakage = 0.0155699 W
            Subthreshold Leakage with power gating = 0.00887485 W
            Gate Leakage = 0.00088729 W
            Runtime Dynamic = 0.0110097 W

      Execution Unit:
        Area = 8.2042 mm^2
        Peak Dynamic = 5.9156 W
        Subthreshold Leakage = 1.83518 W
        Subthreshold Leakage with power gating = 0.709678 W
        Gate Leakage = 0.122718 W
        Runtime Dynamic = 2.07726 W

          Register Files:
            Area = 0.570804 mm^2
            Peak Dynamic = 0.171691 W
            Subthreshold Leakage = 0.0101387 W
            Subthreshold Leakage with power gating = 0.00423643 W
            Gate Leakage = 0.000622708 W
            Runtime Dynamic = 0.0491461 W

              Integer RF:
                Area = 0.362673 mm^2
                Peak Dynamic = 0.0891582 W
                Subthreshold Leakage = 0.00614175 W
                Subthreshold Leakage with power gating = 0.00246675 W
                Gate Leakage = 0.00038992 W
                Runtime Dynamic = 0.0432923 W

              Floating Point RF:
                Area = 0.208131 mm^2
                Peak Dynamic = 0.082533 W
                Subthreshold Leakage = 0.00399698 W
                Subthreshold Leakage with power gating = 0.00176968 W
                Gate Leakage = 0.000232788 W
                Runtime Dynamic = 0.00585378 W

          Instruction Scheduler:
            Area = 2.17927 mm^2
            Peak Dynamic = 4.84781 W
            Subthreshold Leakage = 0.114878 W
            Subthreshold Leakage with power gating = 0.0641291 W
            Gate Leakage = 0.00730101 W
            Runtime Dynamic = 0.610475 W

              Instruction Window:
                Area = 1.00996 mm^2
                Peak Dynamic = 2.07911 W
                Subthreshold Leakage = 0.0800117 W
                Subthreshold Leakage with power gating = 0.0455351 W
                Gate Leakage = 0.00529112 W
                Runtime Dynamic = 0.279625 W

              FP Instruction Window:
                Area = 0.328073 mm^2
                Peak Dynamic = 1.20978 W
                Subthreshold Leakage = 0.017004 W
                Subthreshold Leakage with power gating = 0.00962066 W
                Gate Leakage = 0.00115349 W
                Runtime Dynamic = 0.16148 W

              ROB:
                Area = 0.841232 mm^2
                Peak Dynamic = 1.55892 W
                Subthreshold Leakage = 0.0178624 W
                Subthreshold Leakage with power gating = 0.00897339 W
                Gate Leakage = 0.000856399 W
                Runtime Dynamic = 0.16937 W

          Integer ALUs (Count: 6 ):
            Area = 0.47087 mm^2
            Peak Dynamic = 0.0926401 W
            Subthreshold Leakage = 0.40222 W
            Subthreshold Leakage with power gating = 0.150833 W
            Gate Leakage = 0.0265291 W
            Runtime Dynamic = 0.193647 W

          Floating Point Units (FPUs) (Count: 2 ):
            Area = 4.6585 mm^2
            Peak Dynamic = 0.436864 W
            Subthreshold Leakage = 0.994829 W
            Subthreshold Leakage with power gating = 0.373061 W
            Gate Leakage = 0.0656156 W
            Runtime Dynamic = 0.496216 W

          Complex ALUs (Mul/Div) (Count: 1 ):
            Area = 0.235435 mm^2
            Peak Dynamic = 0.108746 W
            Subthreshold Leakage = 0.20111 W
            Subthreshold Leakage with power gating = 0.0754163 W
            Gate Leakage = 0.0132646 W
            Runtime Dynamic = 0.288103 W

          Results Broadcast Bus:
            Area Overhead = 0.0442632 mm^2
            Peak Dynamic = 0.245235 W
            Subthreshold Leakage = 0.0920413 W
            Subthreshold Leakage with power gating = 0.0345155 W
            Gate Leakage = 0.00607074 W
            Runtime Dynamic = 0.439677 W

    L2
    Area = 3.30348 mm^2
    Peak Dynamic = 0.013761 W
    Subthreshold Leakage = 0.65751 W
    Subthreshold Leakage with power gating = 0.300386 W
    Gate Leakage = 0.00381181 W
    Runtime Dynamic = 0.0139806 W

*****************************************************************************************
Core:
      Area = 25.1635 mm^2
      Peak Dynamic = 16.4699 W
      Subthreshold Leakage = 5.76625 W
      Subthreshold Leakage with power gating = 2.40013 W
      Gate Leakage = 0.343585 W
      Runtime Dynamic = 2.79903 W

      Instruction Fetch Unit:
        Area = 4.0972 mm^2
        Peak Dynamic = 4.1001 W
        Subthreshold Leakage = 0.752505 W
        Subthreshold Leakage with power gating = 0.333996 W
        Gate Leakage = 0.0413555 W
        Runtime Dynamic = 0.192336 W

          Instruction Cache:
            Area = 1.38348 mm^2
            Peak Dynamic = 1.75145 W
            Subthreshold Leakage = 0.186939 W
            Subthreshold Leakage with power gating = 0.105839 W
            Gate Leakage = 0.0122386 W
            Runtime Dynamic = 0.00618985 W

          Branch Target Buffer:
            Area = 0.64954 mm^2
            Peak Dynamic = 0.177867 W
            Subthreshold Leakage = 0.0811682 W
            Subthreshold Leakage with power gating = 0.0435357 W
            Gate Leakage = 0.00272758 W
            Runtime Dynamic = 0.00231032 W

          Branch Predictor:
            Area = 0.138516 mm^2
            Peak Dynamic = 0.0597838 W
            Subthreshold Leakage = 0.0199703 W
            Subthreshold Leakage with power gating = 0.0103282 W
            Gate Leakage = 0.000757657 W
            Runtime Dynamic = 0.001294 W

              Global Predictor:
                Area = 0.0435221 mm^2
                Peak Dynamic = 0.0168831 W
                Subthreshold Leakage = 0.00759719 W
                Subthreshold Leakage with power gating = 0.0039236 W
                Gate Leakage = 0.000278362 W
                Runtime Dynamic = 0.000235154 W

              Local Predictor:
              L1_Local Predictor:
                Area = 0.0257064 mm^2
                Peak Dynamic = 0.0142575 W
                Subthreshold Leakage = 0.00384344 W
                Subthreshold Leakage with power gating = 0.00198631 W
                Gate Leakage = 0.000154548 W
                Runtime Dynamic = 0.00020326 W

              L2_Local Predictor:
                Area = 0.0151917 mm^2
                Peak Dynamic = 0.00527447 W
                Subthreshold Leakage = 0.00181347 W
                Subthreshold Leakage with power gating = 0.000957045 W
                Gate Leakage = 8.00196e-05 W
                Runtime Dynamic = 7.78331e-05 W

              Chooser:
                Area = 0.0435221 mm^2
                Peak Dynamic = 0.0168831 W
                Subthreshold Leakage = 0.00759719 W
                Subthreshold Leakage with power gating = 0.0039236 W
                Gate Leakage = 0.000278362 W
                Runtime Dynamic = 0.000235154 W

              RAS:
                Area = 0.0105732 mm^2
                Peak Dynamic = 0.0117602 W
                Subthreshold Leakage = 0.000932505 W
                Subthreshold Leakage with power gating = 0.000494733 W
                Gate Leakage = 4.63858e-05 W
                Runtime Dynamic = 0.000620435 W

          Instruction Buffer:
            Area = 0.0226323 mm^2
            Peak Dynamic = 0.606827 W
            Subthreshold Leakage = 0.00151885 W
            Subthreshold Leakage with power gating = 0.000701682 W
            Gate Leakage = 6.83558e-05 W
            Runtime Dynamic = 0.0415202 W

          Instruction Decoder:
            Area = 1.85799 mm^2
            Peak Dynamic = 1.37404 W
            Subthreshold Leakage = 0.442943 W
            Subthreshold Leakage with power gating = 0.166104 W
            Gate Leakage = 0.0222493 W
            Runtime Dynamic = 0.141021 W

      Renaming Unit:
        Area = 0.369768 mm^2
        Peak Dynamic = 4.56169 W
        Subthreshold Leakage = 0.070483 W
        Subthreshold Leakage with power gating = 0.0362779 W
        Gate Leakage = 0.00863632 W
        Runtime Dynamic = 0.377643 W

          Int Front End RAT:
            Area = 0.114751 mm^2
            Peak Dynamic = 0.86945 W
            Subthreshold Leakage = 0.00611897 W
            Subthreshold Leakage with power gating = 0.00348781 W
            Gate Leakage = 0.00038343 W
            Runtime Dynamic = 0.0780188 W

          FP Front End RAT:
            Area = 0.168486 mm^2
            Peak Dynamic = 3.33511 W
            Subthreshold Leakage = 0.0437281 W
            Subthreshold Leakage with power gating = 0.024925 W
            Gate Leakage = 0.00489731 W
            Runtime Dynamic = 0.287921 W

          Free List:
            Area = 0.0414755 mm^2
            Peak Dynamic = 0.0401324 W
            Subthreshold Leakage = 0.000670426 W
            Subthreshold Leakage with power gating = 0.000377987 W
            Gate Leakage = 4.15911e-05 W
            Runtime Dynamic = 0.0117024 W

      Load Store Unit:
        Area = 3.12792 mm^2
        Peak Dynamic = 1.49726 W
        Subthreshold Leakage = 0.319183 W
        Subthreshold Leakage with power gating = 0.174979 W
        Gate Leakage = 0.0234193 W
        Runtime Dynamic = 0.118683 W

          Data Cache:
            Area = 2.14967 mm^2
            Peak Dynamic = 1.44284 W
            Subthreshold Leakage = 0.255235 W
            Subthreshold Leakage with power gating = 0.142422 W
            Gate Leakage = 0.0162066 W
            Runtime Dynamic = 0.0505994 W

          LoadQ:
            Area = 0.0836782 mm^2
            Peak Dynamic = 0.011478 W
            Subthreshold Leakage = 0.00941961 W
            Subthreshold Leakage with power gating = 0.00536918 W
            Gate Leakage = 0.00059896 W
            Runtime Dynamic = 0.011478 W

          StoreQ:
            Area = 0.322079 mm^2
            Peak Dynamic = 0.0283027 W
            Subthreshold Leakage = 0.0345621 W
            Subthreshold Leakage with power gating = 0.0197004 W
            Gate Leakage = 0.00329971 W
            Runtime Dynamic = 0.0566055 W

      Memory Management Unit:
        Area = 0.434579 mm^2
        Peak Dynamic = 0.340074 W
        Subthreshold Leakage = 0.0769113 W
        Subthreshold Leakage with power gating = 0.0399462 W
        Gate Leakage = 0.00813591 W
        Runtime Dynamic = 0.0199582 W

          Itlb:
            Area = 0.301552 mm^2
            Peak Dynamic = 0.16421 W
            Subthreshold Leakage = 0.0413758 W
            Subthreshold Leakage with power gating = 0.0235842 W
            Gate Leakage = 0.00393464 W
            Runtime Dynamic = 0.00907566 W

          Dtlb:
            Area = 0.0879726 mm^2
            Peak Dynamic = 0.0100447 W
            Subthreshold Leakage = 0.0155699 W
            Subthreshold Leakage with power gating = 0.00887485 W
            Gate Leakage = 0.00088729 W
            Runtime Dynamic = 0.0108826 W

      Execution Unit:
        Area = 8.2042 mm^2
        Peak Dynamic = 5.91479 W
        Subthreshold Leakage = 1.83518 W
        Subthreshold Leakage with power gating = 0.709678 W
        Gate Leakage = 0.122718 W
        Runtime Dynamic = 2.07452 W

          Register Files:
            Area = 0.570804 mm^2
            Peak Dynamic = 0.171584 W
            Subthreshold Leakage = 0.0101387 W
            Subthreshold Leakage with power gating = 0.00423643 W
            Gate Leakage = 0.000622708 W
            Runtime Dynamic = 0.0490306 W

              Integer RF:
                Area = 0.362673 mm^2
                Peak Dynamic = 0.0890561 W
                Subthreshold Leakage = 0.00614175 W
                Subthreshold Leakage with power gating = 0.00246675 W
                Gate Leakage = 0.00038992 W
                Runtime Dynamic = 0.0431905 W

              Floating Point RF:
                Area = 0.208131 mm^2
                Peak Dynamic = 0.0825277 W
                Subthreshold Leakage = 0.00399698 W
                Subthreshold Leakage with power gating = 0.00176968 W
                Gate Leakage = 0.000232788 W
                Runtime Dynamic = 0.00584002 W

          Instruction Scheduler:
            Area = 2.17927 mm^2
            Peak Dynamic = 4.84781 W
            Subthreshold Leakage = 0.114878 W
            Subthreshold Leakage with power gating = 0.0641291 W
            Gate Leakage = 0.00730101 W
            Runtime Dynamic = 0.608995 W

              Instruction Window:
                Area = 1.00996 mm^2
                Peak Dynamic = 2.07911 W
                Subthreshold Leakage = 0.0800117 W
                Subthreshold Leakage with power gating = 0.0455351 W
                Gate Leakage = 0.00529112 W
                Runtime Dynamic = 0.278968 W

              FP Instruction Window:
                Area = 0.328073 mm^2
                Peak Dynamic = 1.20978 W
                Subthreshold Leakage = 0.017004 W
                Subthreshold Leakage with power gating = 0.00962066 W
                Gate Leakage = 0.00115349 W
                Runtime Dynamic = 0.161101 W

              ROB:
                Area = 0.841232 mm^2
                Peak Dynamic = 1.55892 W
                Subthreshold Leakage = 0.0178624 W
                Subthreshold Leakage with power gating = 0.00897339 W
                Gate Leakage = 0.000856399 W
                Runtime Dynamic = 0.168926 W

          Integer ALUs (Count: 6 ):
            Area = 0.47087 mm^2
            Peak Dynamic = 0.0922677 W
            Subthreshold Leakage = 0.40222 W
            Subthreshold Leakage with power gating = 0.150833 W
            Gate Leakage = 0.0265291 W
            Runtime Dynamic = 0.193277 W

          Floating Point Units (FPUs) (Count: 2 ):
            Area = 4.6585 mm^2
            Peak Dynamic = 0.436836 W
            Subthreshold Leakage = 0.994829 W
            Subthreshold Leakage with power gating = 0.373061 W
            Gate Leakage = 0.0656156 W
            Runtime Dynamic = 0.496204 W

          Complex ALUs (Mul/Div) (Count: 1 ):
            Area = 0.235435 mm^2
            Peak Dynamic = 0.10874 W
            Subthreshold Leakage = 0.20111 W
            Subthreshold Leakage with power gating = 0.0754163 W
            Gate Leakage = 0.0132646 W
            Runtime Dynamic = 0.288098 W

          Results Broadcast Bus:
            Area Overhead = 0.0442632 mm^2
            Peak Dynamic = 0.244987 W
            Subthreshold Leakage = 0.0920413 W
            Subthreshold Leakage with power gating = 0.0345155 W
            Gate Leakage = 0.00607074 W
            Runtime Dynamic = 0.438918 W

    L2
    Area = 4.53318 mm^2
    Peak Dynamic = 0.055967 W
    Subthreshold Leakage = 0.834142 W
    Subthreshold Leakage with power gating = 0.401066 W
    Gate Leakage = 0.015464 W
    Runtime Dynamic = 0.0158925 W

*****************************************************************************************
Core:
      Area = 25.1635 mm^2
      Peak Dynamic = 16.472 W
      Subthreshold Leakage = 5.76625 W
      Subthreshold Leakage with power gating = 2.40013 W
      Gate Leakage = 0.343585 W
      Runtime Dynamic = 2.80034 W

      Instruction Fetch Unit:
        Area = 4.0972 mm^2
        Peak Dynamic = 4.10114 W
        Subthreshold Leakage = 0.752505 W
        Subthreshold Leakage with power gating = 0.333996 W
        Gate Leakage = 0.0413555 W
        Runtime Dynamic = 0.192473 W

          Instruction Cache:
            Area = 1.38348 mm^2
            Peak Dynamic = 1.75242 W
            Subthreshold Leakage = 0.186939 W
            Subthreshold Leakage with power gating = 0.105839 W
            Gate Leakage = 0.0122386 W
            Runtime Dynamic = 0.0062236 W

          Branch Target Buffer:
            Area = 0.64954 mm^2
            Peak Dynamic = 0.177867 W
            Subthreshold Leakage = 0.0811682 W
            Subthreshold Leakage with power gating = 0.0435357 W
            Gate Leakage = 0.00272758 W
            Runtime Dynamic = 0.00231218 W

          Branch Predictor:
            Area = 0.138516 mm^2
            Peak Dynamic = 0.0597838 W
            Subthreshold Leakage = 0.0199703 W
            Subthreshold Leakage with power gating = 0.0103282 W
            Gate Leakage = 0.000757657 W
            Runtime Dynamic = 0.00129469 W

              Global Predictor:
                Area = 0.0435221 mm^2
                Peak Dynamic = 0.0168831 W
                Subthreshold Leakage = 0.00759719 W
                Subthreshold Leakage with power gating = 0.0039236 W
                Gate Leakage = 0.000278362 W
                Runtime Dynamic = 0.000235279 W

              Local Predictor:
              L1_Local Predictor:
                Area = 0.0257064 mm^2
                Peak Dynamic = 0.0142575 W
                Subthreshold Leakage = 0.00384344 W
                Subthreshold Leakage with power gating = 0.00198631 W
                Gate Leakage = 0.000154548 W
                Runtime Dynamic = 0.00020335 W

              L2_Local Predictor:
                Area = 0.0151917 mm^2
                Peak Dynamic = 0.00527447 W
                Subthreshold Leakage = 0.00181347 W
                Subthreshold Leakage with power gating = 0.000957045 W
                Gate Leakage = 8.00196e-05 W
                Runtime Dynamic = 7.78577e-05 W

              Chooser:
                Area = 0.0435221 mm^2
                Peak Dynamic = 0.0168831 W
                Subthreshold Leakage = 0.00759719 W
                Subthreshold Leakage with power gating = 0.0039236 W
                Gate Leakage = 0.000278362 W
                Runtime Dynamic = 0.000235279 W

              RAS:
                Area = 0.0105732 mm^2
                Peak Dynamic = 0.0117602 W
                Subthreshold Leakage = 0.000932505 W
                Subthreshold Leakage with power gating = 0.000494733 W
                Gate Leakage = 4.63858e-05 W
                Runtime Dynamic = 0.000620779 W

          Instruction Buffer:
            Area = 0.0226323 mm^2
            Peak Dynamic = 0.606827 W
            Subthreshold Leakage = 0.00151885 W
            Subthreshold Leakage with power gating = 0.000701682 W
            Gate Leakage = 6.83558e-05 W
            Runtime Dynamic = 0.0415432 W

          Instruction Decoder:
            Area = 1.85799 mm^2
            Peak Dynamic = 1.37404 W
            Subthreshold Leakage = 0.442943 W
            Subthreshold Leakage with power gating = 0.166104 W
            Gate Leakage = 0.0222493 W
            Runtime Dynamic = 0.141099 W

      Renaming Unit:
        Area = 0.369768 mm^2
        Peak Dynamic = 4.56169 W
        Subthreshold Leakage = 0.070483 W
        Subthreshold Leakage with power gating = 0.0362779 W
        Gate Leakage = 0.00863632 W
        Runtime Dynamic = 0.377713 W

          Int Front End RAT:
            Area = 0.114751 mm^2
            Peak Dynamic = 0.86945 W
            Subthreshold Leakage = 0.00611897 W
            Subthreshold Leakage with power gating = 0.00348781 W
            Gate Leakage = 0.00038343 W
            Runtime Dynamic = 0.078067 W

          FP Front End RAT:
            Area = 0.168486 mm^2
            Peak Dynamic = 3.33511 W
            Subthreshold Leakage = 0.0437281 W
            Subthreshold Leakage with power gating = 0.024925 W
            Gate Leakage = 0.00489731 W
            Runtime Dynamic = 0.287939 W

          Free List:
            Area = 0.0414755 mm^2
            Peak Dynamic = 0.0401324 W
            Subthreshold Leakage = 0.000670426 W
            Subthreshold Leakage with power gating = 0.000377987 W
            Gate Leakage = 4.15911e-05 W
            Runtime Dynamic = 0.0117072 W

      Load Store Unit:
        Area = 3.12792 mm^2
        Peak Dynamic = 1.49823 W
        Subthreshold Leakage = 0.319183 W
        Subthreshold Leakage with power gating = 0.174979 W
        Gate Leakage = 0.0234193 W
        Runtime Dynamic = 0.118945 W

          Data Cache:
            Area = 2.14967 mm^2
            Peak Dynamic = 1.4436 W
            Subthreshold Leakage = 0.255235 W
            Subthreshold Leakage with power gating = 0.142422 W
            Gate Leakage = 0.0162066 W
            Runtime Dynamic = 0.0506081 W

          LoadQ:
            Area = 0.0836782 mm^2
            Peak Dynamic = 0.0115207 W
            Subthreshold Leakage = 0.00941961 W
            Subthreshold Leakage with power gating = 0.00536918 W
            Gate Leakage = 0.00059896 W
            Runtime Dynamic = 0.0115207 W

          StoreQ:
            Area = 0.322079 mm^2
            Peak Dynamic = 0.0284081 W
            Subthreshold Leakage = 0.0345621 W
            Subthreshold Leakage with power gating = 0.0197004 W
            Gate Leakage = 0.00329971 W
            Runtime Dynamic = 0.0568163 W

      Memory Management Unit:
        Area = 0.434579 mm^2
        Peak Dynamic = 0.340229 W
        Subthreshold Leakage = 0.0769113 W
        Subthreshold Leakage with power gating = 0.0399462 W
        Gate Leakage = 0.00813591 W
        Runtime Dynamic = 0.0200391 W

          Itlb:
            Area = 0.301552 mm^2
            Peak Dynamic = 0.164301 W
            Subthreshold Leakage = 0.0413758 W
            Subthreshold Leakage with power gating = 0.0235842 W
            Gate Leakage = 0.00393464 W
            Runtime Dynamic = 0.00912179 W

          Dtlb:
            Area = 0.0879726 mm^2
            Peak Dynamic = 0.0100821 W
            Subthreshold Leakage = 0.0155699 W
            Subthreshold Leakage with power gating = 0.00887485 W
            Gate Leakage = 0.00088729 W
            Runtime Dynamic = 0.0109173 W

      Execution Unit:
        Area = 8.2042 mm^2
        Peak Dynamic = 5.91502 W
        Subthreshold Leakage = 1.83518 W
        Subthreshold Leakage with power gating = 0.709678 W
        Gate Leakage = 0.122718 W
        Runtime Dynamic = 2.07533 W

          Register Files:
            Area = 0.570804 mm^2
            Peak Dynamic = 0.171615 W
            Subthreshold Leakage = 0.0101387 W
            Subthreshold Leakage with power gating = 0.00423643 W
            Gate Leakage = 0.000622708 W
            Runtime Dynamic = 0.0490577 W

              Integer RF:
                Area = 0.362673 mm^2
                Peak Dynamic = 0.0890823 W
                Subthreshold Leakage = 0.00614175 W
                Subthreshold Leakage with power gating = 0.00246675 W
                Gate Leakage = 0.00038992 W
                Runtime Dynamic = 0.0432145 W

              Floating Point RF:
                Area = 0.208131 mm^2
                Peak Dynamic = 0.082533 W
                Subthreshold Leakage = 0.00399698 W
                Subthreshold Leakage with power gating = 0.00176968 W
                Gate Leakage = 0.000232788 W
                Runtime Dynamic = 0.00584326 W

          Instruction Scheduler:
            Area = 2.17927 mm^2
            Peak Dynamic = 4.84781 W
            Subthreshold Leakage = 0.114878 W
            Subthreshold Leakage with power gating = 0.0641291 W
            Gate Leakage = 0.00730101 W
            Runtime Dynamic = 0.609374 W

              Instruction Window:
                Area = 1.00996 mm^2
                Peak Dynamic = 2.07911 W
                Subthreshold Leakage = 0.0800117 W
                Subthreshold Leakage with power gating = 0.0455351 W
                Gate Leakage = 0.00529112 W
                Runtime Dynamic = 0.279122 W

              FP Instruction Window:
                Area = 0.328073 mm^2
                Peak Dynamic = 1.20978 W
                Subthreshold Leakage = 0.017004 W
                Subthreshold Leakage with power gating = 0.00962066 W
                Gate Leakage = 0.00115349 W
                Runtime Dynamic = 0.16119 W

              ROB:
                Area = 0.841232 mm^2
                Peak Dynamic = 1.55892 W
                Subthreshold Leakage = 0.0178624 W
                Subthreshold Leakage with power gating = 0.00897339 W
                Gate Leakage = 0.000856399 W
                Runtime Dynamic = 0.169062 W

          Integer ALUs (Count: 6 ):
            Area = 0.47087 mm^2
            Peak Dynamic = 0.0923515 W
            Subthreshold Leakage = 0.40222 W
            Subthreshold Leakage with power gating = 0.150833 W
            Gate Leakage = 0.0265291 W
            Runtime Dynamic = 0.193398 W

          Floating Point Units (FPUs) (Count: 2 ):
            Area = 4.6585 mm^2
            Peak Dynamic = 0.436864 W
            Subthreshold Leakage = 0.994829 W
            Subthreshold Leakage with power gating = 0.373061 W
            Gate Leakage = 0.0656156 W
            Runtime Dynamic = 0.496216 W

          Complex ALUs (Mul/Div) (Count: 1 ):
            Area = 0.235435 mm^2
            Peak Dynamic = 0.108747 W
            Subthreshold Leakage = 0.20111 W
            Subthreshold Leakage with power gating = 0.0754163 W
            Gate Leakage = 0.0132646 W
            Runtime Dynamic = 0.288103 W

          Results Broadcast Bus:
            Area Overhead = 0.0442632 mm^2
            Peak Dynamic = 0.245052 W
            Subthreshold Leakage = 0.0920413 W
            Subthreshold Leakage with power gating = 0.0345155 W
            Gate Leakage = 0.00607074 W
            Runtime Dynamic = 0.439177 W

    L2
    Area = 4.53318 mm^2
    Peak Dynamic = 0.0557177 W
    Subthreshold Leakage = 0.834142 W
    Subthreshold Leakage with power gating = 0.401066 W
    Gate Leakage = 0.015464 W
    Runtime Dynamic = 0.0158415 W

*****************************************************************************************
Core:
      Area = 25.1635 mm^2
      Peak Dynamic = 16.48 W
      Subthreshold Leakage = 5.76625 W
      Subthreshold Leakage with power gating = 2.40013 W
      Gate Leakage = 0.343585 W
      Runtime Dynamic = 2.80471 W

      Instruction Fetch Unit:
        Area = 4.0972 mm^2
        Peak Dynamic = 4.10515 W
        Subthreshold Leakage = 0.752505 W
        Subthreshold Leakage with power gating = 0.333996 W
        Gate Leakage = 0.0413555 W
        Runtime Dynamic = 0.192948 W

          Instruction Cache:
            Area = 1.38348 mm^2
            Peak Dynamic = 1.75615 W
            Subthreshold Leakage = 0.186939 W
            Subthreshold Leakage with power gating = 0.105839 W
            Gate Leakage = 0.0122386 W
            Runtime Dynamic = 0.00628024 W

          Branch Target Buffer:
            Area = 0.64954 mm^2
            Peak Dynamic = 0.177867 W
            Subthreshold Leakage = 0.0811682 W
            Subthreshold Leakage with power gating = 0.0435357 W
            Gate Leakage = 0.00272758 W
            Runtime Dynamic = 0.00233428 W

          Branch Predictor:
            Area = 0.138516 mm^2
            Peak Dynamic = 0.0597838 W
            Subthreshold Leakage = 0.0199703 W
            Subthreshold Leakage with power gating = 0.0103282 W
            Gate Leakage = 0.000757657 W
            Runtime Dynamic = 0.00130258 W

              Global Predictor:
                Area = 0.0435221 mm^2
                Peak Dynamic = 0.0168831 W
                Subthreshold Leakage = 0.00759719 W
                Subthreshold Leakage with power gating = 0.0039236 W
                Gate Leakage = 0.000278362 W
                Runtime Dynamic = 0.000237568 W

              Local Predictor:
              L1_Local Predictor:
                Area = 0.0257064 mm^2
                Peak Dynamic = 0.0142575 W
                Subthreshold Leakage = 0.00384344 W
                Subthreshold Leakage with power gating = 0.00198631 W
                Gate Leakage = 0.000154548 W
                Runtime Dynamic = 0.00020534 W

              L2_Local Predictor:
                Area = 0.0151917 mm^2
                Peak Dynamic = 0.00527447 W
                Subthreshold Leakage = 0.00181347 W
                Subthreshold Leakage with power gating = 0.000957045 W
                Gate Leakage = 8.00196e-05 W
                Runtime Dynamic = 7.86254e-05 W

              Chooser:
                Area = 0.0435221 mm^2
                Peak Dynamic = 0.0168831 W
                Subthreshold Leakage = 0.00759719 W
                Subthreshold Leakage with power gating = 0.0039236 W
                Gate Leakage = 0.000278362 W
                Runtime Dynamic = 0.000237568 W

              RAS:
                Area = 0.0105732 mm^2
                Peak Dynamic = 0.0117602 W
                Subthreshold Leakage = 0.000932505 W
                Subthreshold Leakage with power gating = 0.000494733 W
                Gate Leakage = 4.63858e-05 W
                Runtime Dynamic = 0.0006221 W

          Instruction Buffer:
            Area = 0.0226323 mm^2
            Peak Dynamic = 0.606827 W
            Subthreshold Leakage = 0.00151885 W
            Subthreshold Leakage with power gating = 0.000701682 W
            Gate Leakage = 6.83558e-05 W
            Runtime Dynamic = 0.0416316 W

          Instruction Decoder:
            Area = 1.85799 mm^2
            Peak Dynamic = 1.37404 W
            Subthreshold Leakage = 0.442943 W
            Subthreshold Leakage with power gating = 0.166104 W
            Gate Leakage = 0.0222493 W
            Runtime Dynamic = 0.1414 W

      Renaming Unit:
        Area = 0.369768 mm^2
        Peak Dynamic = 4.56169 W
        Subthreshold Leakage = 0.070483 W
        Subthreshold Leakage with power gating = 0.0362779 W
        Gate Leakage = 0.00863632 W
        Runtime Dynamic = 0.377914 W

          Int Front End RAT:
            Area = 0.114751 mm^2
            Peak Dynamic = 0.86945 W
            Subthreshold Leakage = 0.00611897 W
            Subthreshold Leakage with power gating = 0.00348781 W
            Gate Leakage = 0.00038343 W
            Runtime Dynamic = 0.0782495 W

          FP Front End RAT:
            Area = 0.168486 mm^2
            Peak Dynamic = 3.33511 W
            Subthreshold Leakage = 0.0437281 W
            Subthreshold Leakage with power gating = 0.024925 W
            Gate Leakage = 0.00489731 W
            Runtime Dynamic = 0.28794 W

          Free List:
            Area = 0.0414755 mm^2
            Peak Dynamic = 0.0401324 W
            Subthreshold Leakage = 0.000670426 W
            Subthreshold Leakage with power gating = 0.000377987 W
            Gate Leakage = 4.15911e-05 W
            Runtime Dynamic = 0.0117248 W

      Load Store Unit:
        Area = 3.12792 mm^2
        Peak Dynamic = 1.5007 W
        Subthreshold Leakage = 0.319183 W
        Subthreshold Leakage with power gating = 0.174979 W
        Gate Leakage = 0.0234193 W
        Runtime Dynamic = 0.119869 W

          Data Cache:
            Area = 2.14967 mm^2
            Peak Dynamic = 1.44556 W
            Subthreshold Leakage = 0.255235 W
            Subthreshold Leakage with power gating = 0.142422 W
            Gate Leakage = 0.0162066 W
            Runtime Dynamic = 0.0508842 W

          LoadQ:
            Area = 0.0836782 mm^2
            Peak Dynamic = 0.01163 W
            Subthreshold Leakage = 0.00941961 W
            Subthreshold Leakage with power gating = 0.00536918 W
            Gate Leakage = 0.00059896 W
            Runtime Dynamic = 0.01163 W

          StoreQ:
            Area = 0.322079 mm^2
            Peak Dynamic = 0.0286777 W
            Subthreshold Leakage = 0.0345621 W
            Subthreshold Leakage with power gating = 0.0197004 W
            Gate Leakage = 0.00329971 W
            Runtime Dynamic = 0.0573551 W

      Memory Management Unit:
        Area = 0.434579 mm^2
        Peak Dynamic = 0.340745 W
        Subthreshold Leakage = 0.0769113 W
        Subthreshold Leakage with power gating = 0.0399462 W
        Gate Leakage = 0.00813591 W
        Runtime Dynamic = 0.0202223 W

          Itlb:
            Area = 0.301552 mm^2
            Peak Dynamic = 0.164651 W
            Subthreshold Leakage = 0.0413758 W
            Subthreshold Leakage with power gating = 0.0235842 W
            Gate Leakage = 0.00393464 W
            Runtime Dynamic = 0.00920577 W

          Dtlb:
            Area = 0.0879726 mm^2
            Peak Dynamic = 0.0101778 W
            Subthreshold Leakage = 0.0155699 W
            Subthreshold Leakage with power gating = 0.00887485 W
            Gate Leakage = 0.00088729 W
            Runtime Dynamic = 0.0110165 W

      Execution Unit:
        Area = 8.2042 mm^2
        Peak Dynamic = 5.91571 W
        Subthreshold Leakage = 1.83518 W
        Subthreshold Leakage with power gating = 0.709678 W
        Gate Leakage = 0.122718 W
        Runtime Dynamic = 2.07781 W

          Register Files:
            Area = 0.570804 mm^2
            Peak Dynamic = 0.171706 W
            Subthreshold Leakage = 0.0101387 W
            Subthreshold Leakage with power gating = 0.00423643 W
            Gate Leakage = 0.000622708 W
            Runtime Dynamic = 0.0491622 W

              Integer RF:
                Area = 0.362673 mm^2
                Peak Dynamic = 0.0891724 W
                Subthreshold Leakage = 0.00614175 W
                Subthreshold Leakage with power gating = 0.00246675 W
                Gate Leakage = 0.00038992 W
                Runtime Dynamic = 0.0433065 W

              Floating Point RF:
                Area = 0.208131 mm^2
                Peak Dynamic = 0.0825334 W
                Subthreshold Leakage = 0.00399698 W
                Subthreshold Leakage with power gating = 0.00176968 W
                Gate Leakage = 0.000232788 W
                Runtime Dynamic = 0.0058557 W

          Instruction Scheduler:
            Area = 2.17927 mm^2
            Peak Dynamic = 4.84781 W
            Subthreshold Leakage = 0.114878 W
            Subthreshold Leakage with power gating = 0.0641291 W
            Gate Leakage = 0.00730101 W
            Runtime Dynamic = 0.61072 W

              Instruction Window:
                Area = 1.00996 mm^2
                Peak Dynamic = 2.07911 W
                Subthreshold Leakage = 0.0800117 W
                Subthreshold Leakage with power gating = 0.0455351 W
                Gate Leakage = 0.00529112 W
                Runtime Dynamic = 0.279717 W

              FP Instruction Window:
                Area = 0.328073 mm^2
                Peak Dynamic = 1.20978 W
                Subthreshold Leakage = 0.017004 W
                Subthreshold Leakage with power gating = 0.00962066 W
                Gate Leakage = 0.00115349 W
                Runtime Dynamic = 0.161533 W

              ROB:
                Area = 0.841232 mm^2
                Peak Dynamic = 1.55892 W
                Subthreshold Leakage = 0.0178624 W
                Subthreshold Leakage with power gating = 0.00897339 W
                Gate Leakage = 0.000856399 W
                Runtime Dynamic = 0.16947 W

          Integer ALUs (Count: 6 ):
            Area = 0.47087 mm^2
            Peak Dynamic = 0.0926913 W
            Subthreshold Leakage = 0.40222 W
            Subthreshold Leakage with power gating = 0.150833 W
            Gate Leakage = 0.0265291 W
            Runtime Dynamic = 0.19374 W

          Floating Point Units (FPUs) (Count: 2 ):
            Area = 4.6585 mm^2
            Peak Dynamic = 0.436866 W
            Subthreshold Leakage = 0.994829 W
            Subthreshold Leakage with power gating = 0.373061 W
            Gate Leakage = 0.0656156 W
            Runtime Dynamic = 0.496217 W

          Complex ALUs (Mul/Div) (Count: 1 ):
            Area = 0.235435 mm^2
            Peak Dynamic = 0.108747 W
            Subthreshold Leakage = 0.20111 W
            Subthreshold Leakage with power gating = 0.0754163 W
            Gate Leakage = 0.0132646 W
            Runtime Dynamic = 0.288103 W

          Results Broadcast Bus:
            Area Overhead = 0.0442632 mm^2
            Peak Dynamic = 0.24527 W
            Subthreshold Leakage = 0.0920413 W
            Subthreshold Leakage with power gating = 0.0345155 W
            Gate Leakage = 0.00607074 W
            Runtime Dynamic = 0.439866 W

    L2
    Area = 4.53318 mm^2
    Peak Dynamic = 0.0559772 W
    Subthreshold Leakage = 0.834142 W
    Subthreshold Leakage with power gating = 0.401066 W
    Gate Leakage = 0.015464 W
    Runtime Dynamic = 0.0159531 W

*****************************************************************************************
      L3
      Area = 61.9075 mm^2
      Peak Dynamic = 0.049282 W
      Subthreshold Leakage = 6.80085 W
      Subthreshold Leakage with power gating = 3.32364 W
      Gate Leakage = 0.0484137 W
      Runtime Dynamic = 0.0387517 W

*****************************************************************************************
BUSES
      Area = 1.22514 mm^2
      Peak Dynamic = 0 W
      Subthreshold Leakage = 0.0636072 W
      Subthreshold Leakage with power gating = 0.0238527 W
      Gate Leakage = 0.00609971 W
      Runtime Dynamic = 0 W

      Bus: 
        Area = 1.22514 mm^2
        Peak Dynamic = 0 W
        Subthreshold Leakage = 0.0636072 W
        Subthreshold Leakage with power gating = 0.0238527 W
        Gate Leakage = 0.00609971 W
        Runtime Dynamic = 0 W

*****************************************************************************************
