McPAT (version 1.0 of Aug, 2013) is computing the target processor...
 
DB write error: -30977
DB write error: -30977
DB write error: -30977
DB write error: -30977
DB write error: -30977
DB write error: -30977
DB write error: -30977
DB write error: -30977
DB write error: -30977
DB write error: -30977
DB write error: -30977
DB write error: -30977
DB write error: -30977
DB write error: -30977
DB write error: -30977
DB write error: -30977
DB write error: -30977
DB write error: -30977
DB write error: -30977
DB write error: -30977
DB write error: -30977
DB write error: -30977
DB write error: -30977
DB write error: -30977
DB write error: -30977
DB write error: -30977
DB write error: -30977
DB write error: -30977
DB write error: -30977
DB write error: -30977
DB write error: -30977
DB write error: -30977
DB write error: -30977
DB write error: -30977
DB write error: -30977
DB write error: -30977
DB write error: -30977
DB write error: -30977
DB write error: -30977
DB write error: -30977
DB write error: -30977
DB write error: -30977
DB write error: -30977
DB write error: -30977
DB write error: -30977
DB write error: -30977
DB write error: -30977
DB write error: -30977
DB write error: -30977
DB write error: -30977
DB write error: -30977
DB write error: -30977
DB write error: -30977
DB write error: -30977
DB write error: -30977
DB write error: -30977
DB write error: -30977
DB write error: -30977
DB write error: -30977
DB write error: -30977
DB write error: -30977
DB write error: -30977
DB write error: -30977
DB write error: -30977
DB write error: -30977
DB write error: -30977
DB write error: -30977
DB write error: -30977
DB write error: -30977
DB write error: -30977
DB write error: -30977
DB write error: -30977
DB write error: -30977
DB write error: -30977
DB write error: -30977
DB write error: -30977
DB write error: -30977
DB write error: -30977
DB write error: -30977
DB write error: -30977
DB write error: -30977
DB write error: -30977
DB write error: -30977
DB write error: -30977
DB write error: -30977
DB write error: -30977
DB write error: -30977
DB write error: -30977
DB write error: -30977
DB write error: -30977
DB write error: -30977
DB write error: -30977
DB write error: -30977
DB write error: -30977
DB write error: -30977
DB write error: -30977
DB write error: -30977
DB write error: -30977
DB write error: -30977
DB write error: -30977
DB write error: -30977
DB write error: -30977
DB write error: -30977
DB write error: -30977
DB write error: -30977
DB write error: -30977
DB write error: -30977
DB write error: -30977
DB write error: -30977
DB write error: -30977
DB write error: -30977
DB write error: -30977
DB write error: -30977
DB write error: -30977
DB write error: -30977
DB write error: -30977
DB write error: -30977
DB write error: -30977
DB write error: -30977
DB write error: -30977
DB write error: -30977
DB write error: -30977
DB write error: -30977
DB write error: -30977
DB write error: -30977
DB write error: -30977
DB write error: -30977
DB write error: -30977
DB write error: -30977
DB write error: -30977
DB write error: -30977
DB write error: -30977
DB write error: -30977
DB write error: -30977
DB write error: -30977
DB write error: -30977
DB write error: -30977
DB write error: -30977
DB write error: -30977
DB write error: -30977
DB write error: -30977
DB write error: -30977
DB write error: -30977
DB write error: -30977
DB write error: -30977
DB write error: -30977
DB write error: -30977
DB write error: -30977
DB write error: -30977
DB write error: -30977
DB write error: -30977
DB write error: -30977
DB write error: -30977
DB write error: -30977
DB write error: -30977
DB write error: -30977
DB write error: -30977
DB write error: -30977
DB write error: -30977
DB write error: -30977
DB write error: -30977
DB write error: -30977
DB write error: -30977
DB write error: -30977
DB write error: -30977
DB write error: -30977
DB write error: -30977
DB write error: -30977
DB write error: -30977
DB write error: -30977
DB write error: -30977
DB write error: -30977
DB write error: -30977
DB write error: -30977
DB write error: -30977
DB write error: -30977
DB write error: -30977
DB write error: -30977
DB write error: -30977
DB write error: -30977
DB write error: -30977
DB write error: -30977
DB write error: -30977
DB write error: -30977
DB write error: -30977
DB write error: -30977
DB write error: -30977
DB write error: -30977
DB write error: -30977
DB write error: -30977
DB write error: -30977
DB write error: -30977
DB write error: -30977
DB write error: -30977
DB write error: -30977
DB write error: -30977
DB write error: -30977
DB write error: -30977
DB write error: -30977
DB write error: -30977
DB write error: -30977
DB write error: -30977
DB write error: -30977
DB write error: -30977
DB write error: -30977
DB write error: -30977
DB write error: -30977
DB write error: -30977
DB write error: -30977
DB write error: -30977
DB write error: -30977
DB write error: -30977
DB write error: -30977
DB write error: -30977
DB write error: -30977
DB write error: -30977
DB write error: -30977
DB write error: -30977
DB write error: -30977
DB write error: -30977
DB write error: -30977
DB write error: -30977
DB write error: -30977
DB write error: -30977
DB write error: -30977
DB write error: -30977
DB write error: -30977
DB write error: -30977
DB write error: -30977
DB write error: -30977
DB write error: -30977
DB write error: -30977
DB write error: -30977
DB write error: -30977
DB write error: -30977
DB write error: -30977
DB write error: -30977
DB write error: -30977
DB write error: -30977
DB write error: -30977
DB write error: -30977
DB write error: -30977
DB write error: -30977
DB write error: -30977
DB write error: -30977
DB write error: -30977
DB write error: -30977
DB write error: -30977
DB write error: -30977
DB write error: -30977
DB write error: -30977
DB write error: -30977
DB write error: -30977
DB write error: -30977
DB write error: -30977
DB write error: -30977
DB write error: -30977
DB write error: -30977
DB write error: -30977
DB write error: -30977
DB write error: -30977
DB write error: -30977
DB write error: -30977
DB write error: -30977
DB write error: -30977
DB write error: -30977
DB write error: -30977
DB write error: -30977
DB write error: -30977
DB write error: -30977
DB write error: -30977
DB write error: -30977
DB write error: -30977
DB write error: -30977
DB write error: -30977
DB write error: -30977
DB write error: -30977
DB write error: -30977
DB write error: -30977
DB write error: -30977
DB write error: -30977
DB write error: -30977
DB write error: -30977
DB write error: -30977
DB write error: -30977
DB write error: -30977
DB write error: -30977
DB write error: -30977
DB write error: -30977
DB write error: -30977
DB write error: -30977
DB write error: -30977
DB write error: -30977
DB write error: -30977
DB write error: -30977
DB write error: -30977
DB write error: -30977
DB write error: -30977
DB write error: -30977
DB write error: -30977
DB write error: -30977
DB write error: -30977
DB write error: -30977
DB write error: -30977
DB write error: -30977
DB write error: -30977
DB write error: -30977
DB write error: -30977
DB write error: -30977
DB write error: -30977
DB write error: -30977
DB write error: -30977
DB write error: -30977
DB write error: -30977
DB write error: -30977
DB write error: -30977
DB write error: -30977
DB write error: -30977
DB write error: -30977
DB write error: -30977
DB write error: -30977
DB write error: -30977
DB write error: -30977
DB write error: -30977
DB write error: -30977
DB write error: -30977
DB write error: -30977
DB write error: -30977
DB write error: -30977
DB write error: -30977
DB write error: -30977
DB write error: -30977
DB write error: -30977
DB write error: -30977
DB write error: -30977
DB write error: -30977
DB write error: -30977
DB write error: -30977
DB write error: -30977
DB write error: -30977
DB write error: -30977
DB write error: -30977
DB write error: -30977
DB write error: -30977
DB write error: -30977
DB write error: -30977
DB write error: -30977
DB write error: -30977
DB write error: -30977
DB write error: -30977
DB write error: -30977
DB write error: -30977
DB write error: -30977
DB write error: -30977
DB write error: -30977
DB write error: -30977
DB write error: -30977
DB write error: -30977
DB write error: -30977
DB write error: -30977
DB write error: -30977
DB write error: -30977
DB write error: -30977
DB write error: -30977
DB write error: -30977
DB write error: -30977
DB write error: -30977
DB write error: -30977
DB write error: -30977
DB write error: -30977
DB write error: -30977
DB write error: -30977
DB write error: -30977
DB write error: -30977
DB write error: -30977
DB write error: -30977
DB write error: -30977
DB write error: -30977
DB write error: -30977
DB write error: -30977
DB write error: -30977
DB write error: -30977
DB write error: -30977
DB write error: -30977
DB write error: -30977
DB write error: -30977
DB write error: -30977
DB write error: -30977
DB write error: -30977
DB write error: -30977
DB write error: -30977
DB write error: -30977
DB write error: -30977
DB write error: -30977
DB write error: -30977
DB write error: -30977
DB write error: -30977
DB write error: -30977
DB write error: -30977
DB write error: -30977
DB write error: -30977
DB write error: -30977
DB write error: -30977
DB write error: -30977
DB write error: -30977
DB write error: -30977
DB write error: -30977
DB write error: -30977
DB write error: -30977
DB write error: -30977
DB write error: -30977
DB write error: -30977
DB write error: -30977
DB write error: -30977
DB write error: -30977
DB write error: -30977
DB write error: -30977
DB write error: -30977
DB write error: -30977
DB write error: -30977
DB write error: -30977
DB write error: -30977
DB write error: -30977
DB write error: -30977
DB write error: -30977
DB write error: -30977
DB write error: -30977
DB write error: -30977

McPAT (version 1.0 of Aug, 2013) results  (current print level is 5)
*****************************************************************************************
  Technology 45 nm
  Using Long Channel Devices When Appropriate
  Interconnect metal projection= aggressive interconnect technology projection
  Core clock Rate(MHz) 2660

*****************************************************************************************
Processor: 
  Area = 194.447 mm^2
  Peak Power = 100.66 W
  Total Leakage = 34.6056 W
  Peak Dynamic = 66.0547 W
  Subthreshold Leakage = 32.9472 W
  Subthreshold Leakage with power gating = 14.9325 W
  Gate Leakage = 1.6584 W
  Runtime Dynamic = 11.2408 W

  Total Cores: 4 cores 
  Device Type= ITRS high performance device type
    Area = 131.199 mm^2
    Peak Dynamic = 66.0032 W
    Subthreshold Leakage = 26.0768 W
    Subthreshold Leakage with power gating = 11.3149 W
    Gate Leakage = 1.60332 W
    Runtime Dynamic = 11.2009 W

  Total L3s: 
  Device Type= ITRS high performance device type
    Area = 61.9075 mm^2
    Peak Dynamic = 0.051482 W
    Subthreshold Leakage = 6.80085 W
    Subthreshold Leakage with power gating = 3.32364 W
    Gate Leakage = 0.0484137 W
    Runtime Dynamic = 0.0399383 W

  Total NoCs (Network/Bus): 
  Device Type= ITRS high performance device type
    Area = 1.34036 mm^2
    Peak Dynamic = 0 W
    Subthreshold Leakage = 0.0695897 W
    Subthreshold Leakage with power gating = 0.0260961 W
    Gate Leakage = 0.00667341 W
    Runtime Dynamic = 0 W

*****************************************************************************************
Core:
      Area = 55.4703 mm^2
      Peak Dynamic = 16.6302 W
      Subthreshold Leakage = 8.7575 W
      Subthreshold Leakage with power gating = 4.10457 W
      Gate Leakage = 0.571986 W
      Runtime Dynamic = 2.80925 W

      Instruction Fetch Unit:
        Area = 4.10413 mm^2
        Peak Dynamic = 4.1024 W
        Subthreshold Leakage = 0.755383 W
        Subthreshold Leakage with power gating = 0.335447 W
        Gate Leakage = 0.0414628 W
        Runtime Dynamic = 0.192439 W

          Instruction Cache:
            Area = 1.3904 mm^2
            Peak Dynamic = 1.75371 W
            Subthreshold Leakage = 0.189818 W
            Subthreshold Leakage with power gating = 0.10729 W
            Gate Leakage = 0.0123459 W
            Runtime Dynamic = 0.00629639 W

          Branch Target Buffer:
            Area = 0.64954 mm^2
            Peak Dynamic = 0.177867 W
            Subthreshold Leakage = 0.0811682 W
            Subthreshold Leakage with power gating = 0.0435357 W
            Gate Leakage = 0.00272758 W
            Runtime Dynamic = 0.00226233 W

          Branch Predictor:
            Area = 0.138516 mm^2
            Peak Dynamic = 0.0597838 W
            Subthreshold Leakage = 0.0199703 W
            Subthreshold Leakage with power gating = 0.0103282 W
            Gate Leakage = 0.000757657 W
            Runtime Dynamic = 0.00127986 W

              Global Predictor:
                Area = 0.0435221 mm^2
                Peak Dynamic = 0.0168831 W
                Subthreshold Leakage = 0.00759719 W
                Subthreshold Leakage with power gating = 0.0039236 W
                Gate Leakage = 0.000278362 W
                Runtime Dynamic = 0.000230158 W

              Local Predictor:
              L1_Local Predictor:
                Area = 0.0257064 mm^2
                Peak Dynamic = 0.0142575 W
                Subthreshold Leakage = 0.00384344 W
                Subthreshold Leakage with power gating = 0.00198631 W
                Gate Leakage = 0.000154548 W
                Runtime Dynamic = 0.000198912 W

              L2_Local Predictor:
                Area = 0.0151917 mm^2
                Peak Dynamic = 0.00527447 W
                Subthreshold Leakage = 0.00181347 W
                Subthreshold Leakage with power gating = 0.000957045 W
                Gate Leakage = 8.00196e-05 W
                Runtime Dynamic = 7.61509e-05 W

              Chooser:
                Area = 0.0435221 mm^2
                Peak Dynamic = 0.0168831 W
                Subthreshold Leakage = 0.00759719 W
                Subthreshold Leakage with power gating = 0.0039236 W
                Gate Leakage = 0.000278362 W
                Runtime Dynamic = 0.000230158 W

              RAS:
                Area = 0.0105732 mm^2
                Peak Dynamic = 0.0117602 W
                Subthreshold Leakage = 0.000932505 W
                Subthreshold Leakage with power gating = 0.000494733 W
                Gate Leakage = 4.63858e-05 W
                Runtime Dynamic = 0.000620635 W

          Instruction Buffer:
            Area = 0.0226323 mm^2
            Peak Dynamic = 0.606827 W
            Subthreshold Leakage = 0.00151885 W
            Subthreshold Leakage with power gating = 0.000701682 W
            Gate Leakage = 6.83558e-05 W
            Runtime Dynamic = 0.0415336 W

          Instruction Decoder:
            Area = 1.85799 mm^2
            Peak Dynamic = 1.37404 W
            Subthreshold Leakage = 0.442943 W
            Subthreshold Leakage with power gating = 0.166104 W
            Gate Leakage = 0.0222493 W
            Runtime Dynamic = 0.141067 W

      Renaming Unit:
        Area = 0.369768 mm^2
        Peak Dynamic = 4.56169 W
        Subthreshold Leakage = 0.070483 W
        Subthreshold Leakage with power gating = 0.0362779 W
        Gate Leakage = 0.00863632 W
        Runtime Dynamic = 0.378997 W

          Int Front End RAT:
            Area = 0.114751 mm^2
            Peak Dynamic = 0.86945 W
            Subthreshold Leakage = 0.00611897 W
            Subthreshold Leakage with power gating = 0.00348781 W
            Gate Leakage = 0.00038343 W
            Runtime Dynamic = 0.0780154 W

          FP Front End RAT:
            Area = 0.168486 mm^2
            Peak Dynamic = 3.33511 W
            Subthreshold Leakage = 0.0437281 W
            Subthreshold Leakage with power gating = 0.024925 W
            Gate Leakage = 0.00489731 W
            Runtime Dynamic = 0.289261 W

          Free List:
            Area = 0.0414755 mm^2
            Peak Dynamic = 0.0401324 W
            Subthreshold Leakage = 0.000670426 W
            Subthreshold Leakage with power gating = 0.000377987 W
            Gate Leakage = 4.15911e-05 W
            Runtime Dynamic = 0.0117212 W

      Load Store Unit:
        Area = 3.20041 mm^2
        Peak Dynamic = 1.49604 W
        Subthreshold Leakage = 0.32315 W
        Subthreshold Leakage with power gating = 0.176854 W
        Gate Leakage = 0.0235039 W
        Runtime Dynamic = 0.118027 W

          Data Cache:
            Area = 2.20958 mm^2
            Peak Dynamic = 1.44225 W
            Subthreshold Leakage = 0.259202 W
            Subthreshold Leakage with power gating = 0.144298 W
            Gate Leakage = 0.0162912 W
            Runtime Dynamic = 0.0507276 W

          LoadQ:
            Area = 0.0836782 mm^2
            Peak Dynamic = 0.0113458 W
            Subthreshold Leakage = 0.00941961 W
            Subthreshold Leakage with power gating = 0.00536918 W
            Gate Leakage = 0.00059896 W
            Runtime Dynamic = 0.0113459 W

          StoreQ:
            Area = 0.322079 mm^2
            Peak Dynamic = 0.0279767 W
            Subthreshold Leakage = 0.0345621 W
            Subthreshold Leakage with power gating = 0.0197004 W
            Gate Leakage = 0.00329971 W
            Runtime Dynamic = 0.0559539 W

      Memory Management Unit:
        Area = 0.434579 mm^2
        Peak Dynamic = 0.339927 W
        Subthreshold Leakage = 0.0769113 W
        Subthreshold Leakage with power gating = 0.0399462 W
        Gate Leakage = 0.00813591 W
        Runtime Dynamic = 0.0196282 W

          Itlb:
            Area = 0.301552 mm^2
            Peak Dynamic = 0.164263 W
            Subthreshold Leakage = 0.0413758 W
            Subthreshold Leakage with power gating = 0.0235842 W
            Gate Leakage = 0.00393464 W
            Runtime Dynamic = 0.00908811 W

          Dtlb:
            Area = 0.0879726 mm^2
            Peak Dynamic = 0.00992902 W
            Subthreshold Leakage = 0.0155699 W
            Subthreshold Leakage with power gating = 0.00887485 W
            Gate Leakage = 0.00088729 W
            Runtime Dynamic = 0.0105401 W

      Execution Unit:
        Area = 8.2042 mm^2
        Peak Dynamic = 5.91835 W
        Subthreshold Leakage = 1.83518 W
        Subthreshold Leakage with power gating = 0.709678 W
        Gate Leakage = 0.122718 W
        Runtime Dynamic = 2.07653 W

          Register Files:
            Area = 0.570804 mm^2
            Peak Dynamic = 0.172199 W
            Subthreshold Leakage = 0.0101387 W
            Subthreshold Leakage with power gating = 0.00423643 W
            Gate Leakage = 0.000622708 W
            Runtime Dynamic = 0.0490464 W

              Integer RF:
                Area = 0.362673 mm^2
                Peak Dynamic = 0.0892872 W
                Subthreshold Leakage = 0.00614175 W
                Subthreshold Leakage with power gating = 0.00246675 W
                Gate Leakage = 0.00038992 W
                Runtime Dynamic = 0.0432045 W

              Floating Point RF:
                Area = 0.208131 mm^2
                Peak Dynamic = 0.082912 W
                Subthreshold Leakage = 0.00399698 W
                Subthreshold Leakage with power gating = 0.00176968 W
                Gate Leakage = 0.000232788 W
                Runtime Dynamic = 0.0058419 W

          Instruction Scheduler:
            Area = 2.17927 mm^2
            Peak Dynamic = 4.84781 W
            Subthreshold Leakage = 0.114878 W
            Subthreshold Leakage with power gating = 0.0641291 W
            Gate Leakage = 0.00730101 W
            Runtime Dynamic = 0.60913 W

              Instruction Window:
                Area = 1.00996 mm^2
                Peak Dynamic = 2.07911 W
                Subthreshold Leakage = 0.0800117 W
                Subthreshold Leakage with power gating = 0.0455351 W
                Gate Leakage = 0.00529112 W
                Runtime Dynamic = 0.279058 W

              FP Instruction Window:
                Area = 0.328073 mm^2
                Peak Dynamic = 1.20978 W
                Subthreshold Leakage = 0.017004 W
                Subthreshold Leakage with power gating = 0.00962066 W
                Gate Leakage = 0.00115349 W
                Runtime Dynamic = 0.161152 W

              ROB:
                Area = 0.841232 mm^2
                Peak Dynamic = 1.55892 W
                Subthreshold Leakage = 0.0178624 W
                Subthreshold Leakage with power gating = 0.00897339 W
                Gate Leakage = 0.000856399 W
                Runtime Dynamic = 0.16892 W

          Integer ALUs (Count: 6 ):
            Area = 0.47087 mm^2
            Peak Dynamic = 0.092007 W
            Subthreshold Leakage = 0.40222 W
            Subthreshold Leakage with power gating = 0.150833 W
            Gate Leakage = 0.0265291 W
            Runtime Dynamic = 0.193073 W

          Floating Point Units (FPUs) (Count: 2 ):
            Area = 4.6585 mm^2
            Peak Dynamic = 0.43887 W
            Subthreshold Leakage = 0.994829 W
            Subthreshold Leakage with power gating = 0.373061 W
            Gate Leakage = 0.0656156 W
            Runtime Dynamic = 0.497098 W

          Complex ALUs (Mul/Div) (Count: 1 ):
            Area = 0.235435 mm^2
            Peak Dynamic = 0.109246 W
            Subthreshold Leakage = 0.20111 W
            Subthreshold Leakage with power gating = 0.0754163 W
            Gate Leakage = 0.0132646 W
            Runtime Dynamic = 0.288495 W

          Results Broadcast Bus:
            Area Overhead = 0.0442632 mm^2
            Peak Dynamic = 0.245684 W
            Subthreshold Leakage = 0.0920413 W
            Subthreshold Leakage with power gating = 0.0345155 W
            Gate Leakage = 0.00607074 W
            Runtime Dynamic = 0.43969 W

    L2
    Area = 34.7605 mm^2
    Peak Dynamic = 0.211764 W
    Subthreshold Leakage = 3.81854 W
    Subthreshold Leakage with power gating = 2.10217 W
    Gate Leakage = 0.243673 W
    Runtime Dynamic = 0.0236279 W

*****************************************************************************************
Core:
      Area = 25.243 mm^2
      Peak Dynamic = 16.4566 W
      Subthreshold Leakage = 5.77309 W
      Subthreshold Leakage with power gating = 2.40346 W
      Gate Leakage = 0.343777 W
      Runtime Dynamic = 2.79659 W

      Instruction Fetch Unit:
        Area = 4.10413 mm^2
        Peak Dynamic = 4.10136 W
        Subthreshold Leakage = 0.755383 W
        Subthreshold Leakage with power gating = 0.335447 W
        Gate Leakage = 0.0414628 W
        Runtime Dynamic = 0.192316 W

          Instruction Cache:
            Area = 1.3904 mm^2
            Peak Dynamic = 1.75274 W
            Subthreshold Leakage = 0.189818 W
            Subthreshold Leakage with power gating = 0.10729 W
            Gate Leakage = 0.0123459 W
            Runtime Dynamic = 0.00628155 W

          Branch Target Buffer:
            Area = 0.64954 mm^2
            Peak Dynamic = 0.177867 W
            Subthreshold Leakage = 0.0811682 W
            Subthreshold Leakage with power gating = 0.0435357 W
            Gate Leakage = 0.00272758 W
            Runtime Dynamic = 0.00225704 W

          Branch Predictor:
            Area = 0.138516 mm^2
            Peak Dynamic = 0.0597838 W
            Subthreshold Leakage = 0.0199703 W
            Subthreshold Leakage with power gating = 0.0103282 W
            Gate Leakage = 0.000757657 W
            Runtime Dynamic = 0.00127797 W

              Global Predictor:
                Area = 0.0435221 mm^2
                Peak Dynamic = 0.0168831 W
                Subthreshold Leakage = 0.00759719 W
                Subthreshold Leakage with power gating = 0.0039236 W
                Gate Leakage = 0.000278362 W
                Runtime Dynamic = 0.000229616 W

              Local Predictor:
              L1_Local Predictor:
                Area = 0.0257064 mm^2
                Peak Dynamic = 0.0142575 W
                Subthreshold Leakage = 0.00384344 W
                Subthreshold Leakage with power gating = 0.00198631 W
                Gate Leakage = 0.000154548 W
                Runtime Dynamic = 0.000198442 W

              L2_Local Predictor:
                Area = 0.0151917 mm^2
                Peak Dynamic = 0.00527447 W
                Subthreshold Leakage = 0.00181347 W
                Subthreshold Leakage with power gating = 0.000957045 W
                Gate Leakage = 8.00196e-05 W
                Runtime Dynamic = 7.59703e-05 W

              Chooser:
                Area = 0.0435221 mm^2
                Peak Dynamic = 0.0168831 W
                Subthreshold Leakage = 0.00759719 W
                Subthreshold Leakage with power gating = 0.0039236 W
                Gate Leakage = 0.000278362 W
                Runtime Dynamic = 0.000229616 W

              RAS:
                Area = 0.0105732 mm^2
                Peak Dynamic = 0.0117602 W
                Subthreshold Leakage = 0.000932505 W
                Subthreshold Leakage with power gating = 0.000494733 W
                Gate Leakage = 4.63858e-05 W
                Runtime Dynamic = 0.000620292 W

          Instruction Buffer:
            Area = 0.0226323 mm^2
            Peak Dynamic = 0.606827 W
            Subthreshold Leakage = 0.00151885 W
            Subthreshold Leakage with power gating = 0.000701682 W
            Gate Leakage = 6.83558e-05 W
            Runtime Dynamic = 0.0415106 W

          Instruction Decoder:
            Area = 1.85799 mm^2
            Peak Dynamic = 1.37404 W
            Subthreshold Leakage = 0.442943 W
            Subthreshold Leakage with power gating = 0.166104 W
            Gate Leakage = 0.0222493 W
            Runtime Dynamic = 0.140989 W

      Renaming Unit:
        Area = 0.369768 mm^2
        Peak Dynamic = 4.56169 W
        Subthreshold Leakage = 0.070483 W
        Subthreshold Leakage with power gating = 0.0362779 W
        Gate Leakage = 0.00863632 W
        Runtime Dynamic = 0.37894 W

          Int Front End RAT:
            Area = 0.114751 mm^2
            Peak Dynamic = 0.86945 W
            Subthreshold Leakage = 0.00611897 W
            Subthreshold Leakage with power gating = 0.00348781 W
            Gate Leakage = 0.00038343 W
            Runtime Dynamic = 0.0779679 W

          FP Front End RAT:
            Area = 0.168486 mm^2
            Peak Dynamic = 3.33511 W
            Subthreshold Leakage = 0.0437281 W
            Subthreshold Leakage with power gating = 0.024925 W
            Gate Leakage = 0.00489731 W
            Runtime Dynamic = 0.289256 W

          Free List:
            Area = 0.0414755 mm^2
            Peak Dynamic = 0.0401324 W
            Subthreshold Leakage = 0.000670426 W
            Subthreshold Leakage with power gating = 0.000377987 W
            Gate Leakage = 4.15911e-05 W
            Runtime Dynamic = 0.0117166 W

      Load Store Unit:
        Area = 3.20041 mm^2
        Peak Dynamic = 1.49537 W
        Subthreshold Leakage = 0.32315 W
        Subthreshold Leakage with power gating = 0.176854 W
        Gate Leakage = 0.0235039 W
        Runtime Dynamic = 0.117694 W

          Data Cache:
            Area = 2.20958 mm^2
            Peak Dynamic = 1.44172 W
            Subthreshold Leakage = 0.259202 W
            Subthreshold Leakage with power gating = 0.144298 W
            Gate Leakage = 0.0162912 W
            Runtime Dynamic = 0.0505697 W

          LoadQ:
            Area = 0.0836782 mm^2
            Peak Dynamic = 0.0113164 W
            Subthreshold Leakage = 0.00941961 W
            Subthreshold Leakage with power gating = 0.00536918 W
            Gate Leakage = 0.00059896 W
            Runtime Dynamic = 0.0113164 W

          StoreQ:
            Area = 0.322079 mm^2
            Peak Dynamic = 0.0279044 W
            Subthreshold Leakage = 0.0345621 W
            Subthreshold Leakage with power gating = 0.0197004 W
            Gate Leakage = 0.00329971 W
            Runtime Dynamic = 0.0558084 W

      Memory Management Unit:
        Area = 0.434579 mm^2
        Peak Dynamic = 0.339791 W
        Subthreshold Leakage = 0.0769113 W
        Subthreshold Leakage with power gating = 0.0399462 W
        Gate Leakage = 0.00813591 W
        Runtime Dynamic = 0.0195724 W

          Itlb:
            Area = 0.301552 mm^2
            Peak Dynamic = 0.164172 W
            Subthreshold Leakage = 0.0413758 W
            Subthreshold Leakage with power gating = 0.0235842 W
            Gate Leakage = 0.00393464 W
            Runtime Dynamic = 0.00906619 W

          Dtlb:
            Area = 0.0879726 mm^2
            Peak Dynamic = 0.00990336 W
            Subthreshold Leakage = 0.0155699 W
            Subthreshold Leakage with power gating = 0.00887485 W
            Gate Leakage = 0.00088729 W
            Runtime Dynamic = 0.0105062 W

      Execution Unit:
        Area = 8.2042 mm^2
        Peak Dynamic = 5.91816 W
        Subthreshold Leakage = 1.83518 W
        Subthreshold Leakage with power gating = 0.709678 W
        Gate Leakage = 0.122718 W
        Runtime Dynamic = 2.07588 W

          Register Files:
            Area = 0.570804 mm^2
            Peak Dynamic = 0.172174 W
            Subthreshold Leakage = 0.0101387 W
            Subthreshold Leakage with power gating = 0.00423643 W
            Gate Leakage = 0.000622708 W
            Runtime Dynamic = 0.0490192 W

              Integer RF:
                Area = 0.362673 mm^2
                Peak Dynamic = 0.0892638 W
                Subthreshold Leakage = 0.00614175 W
                Subthreshold Leakage with power gating = 0.00246675 W
                Gate Leakage = 0.00038992 W
                Runtime Dynamic = 0.0431806 W

              Floating Point RF:
                Area = 0.208131 mm^2
                Peak Dynamic = 0.0829106 W
                Subthreshold Leakage = 0.00399698 W
                Subthreshold Leakage with power gating = 0.00176968 W
                Gate Leakage = 0.000232788 W
                Runtime Dynamic = 0.00583867 W

          Instruction Scheduler:
            Area = 2.17927 mm^2
            Peak Dynamic = 4.84781 W
            Subthreshold Leakage = 0.114878 W
            Subthreshold Leakage with power gating = 0.0641291 W
            Gate Leakage = 0.00730101 W
            Runtime Dynamic = 0.608782 W

              Instruction Window:
                Area = 1.00996 mm^2
                Peak Dynamic = 2.07911 W
                Subthreshold Leakage = 0.0800117 W
                Subthreshold Leakage with power gating = 0.0455351 W
                Gate Leakage = 0.00529112 W
                Runtime Dynamic = 0.278903 W

              FP Instruction Window:
                Area = 0.328073 mm^2
                Peak Dynamic = 1.20978 W
                Subthreshold Leakage = 0.017004 W
                Subthreshold Leakage with power gating = 0.00962066 W
                Gate Leakage = 0.00115349 W
                Runtime Dynamic = 0.161063 W

              ROB:
                Area = 0.841232 mm^2
                Peak Dynamic = 1.55892 W
                Subthreshold Leakage = 0.0178624 W
                Subthreshold Leakage with power gating = 0.00897339 W
                Gate Leakage = 0.000856399 W
                Runtime Dynamic = 0.168815 W

          Integer ALUs (Count: 6 ):
            Area = 0.47087 mm^2
            Peak Dynamic = 0.0919209 W
            Subthreshold Leakage = 0.40222 W
            Subthreshold Leakage with power gating = 0.150833 W
            Gate Leakage = 0.0265291 W
            Runtime Dynamic = 0.192985 W

          Floating Point Units (FPUs) (Count: 2 ):
            Area = 4.6585 mm^2
            Peak Dynamic = 0.438863 W
            Subthreshold Leakage = 0.994829 W
            Subthreshold Leakage with power gating = 0.373061 W
            Gate Leakage = 0.0656156 W
            Runtime Dynamic = 0.497095 W

          Complex ALUs (Mul/Div) (Count: 1 ):
            Area = 0.235435 mm^2
            Peak Dynamic = 0.109245 W
            Subthreshold Leakage = 0.20111 W
            Subthreshold Leakage with power gating = 0.0754163 W
            Gate Leakage = 0.0132646 W
            Runtime Dynamic = 0.288494 W

          Results Broadcast Bus:
            Area Overhead = 0.0442632 mm^2
            Peak Dynamic = 0.245627 W
            Subthreshold Leakage = 0.0920413 W
            Subthreshold Leakage with power gating = 0.0345155 W
            Gate Leakage = 0.00607074 W
            Runtime Dynamic = 0.43951 W

    L2
    Area = 4.53318 mm^2
    Peak Dynamic = 0.0401749 W
    Subthreshold Leakage = 0.834142 W
    Subthreshold Leakage with power gating = 0.401066 W
    Gate Leakage = 0.015464 W
    Runtime Dynamic = 0.0121846 W

*****************************************************************************************
Core:
      Area = 25.243 mm^2
      Peak Dynamic = 16.4572 W
      Subthreshold Leakage = 5.77309 W
      Subthreshold Leakage with power gating = 2.40346 W
      Gate Leakage = 0.343777 W
      Runtime Dynamic = 2.79697 W

      Instruction Fetch Unit:
        Area = 4.10413 mm^2
        Peak Dynamic = 4.10171 W
        Subthreshold Leakage = 0.755383 W
        Subthreshold Leakage with power gating = 0.335447 W
        Gate Leakage = 0.0414628 W
        Runtime Dynamic = 0.19236 W

          Instruction Cache:
            Area = 1.3904 mm^2
            Peak Dynamic = 1.75306 W
            Subthreshold Leakage = 0.189818 W
            Subthreshold Leakage with power gating = 0.10729 W
            Gate Leakage = 0.0123459 W
            Runtime Dynamic = 0.0062908 W

          Branch Target Buffer:
            Area = 0.64954 mm^2
            Peak Dynamic = 0.177867 W
            Subthreshold Leakage = 0.0811682 W
            Subthreshold Leakage with power gating = 0.0435357 W
            Gate Leakage = 0.00272758 W
            Runtime Dynamic = 0.00225822 W

          Branch Predictor:
            Area = 0.138516 mm^2
            Peak Dynamic = 0.0597838 W
            Subthreshold Leakage = 0.0199703 W
            Subthreshold Leakage with power gating = 0.0103282 W
            Gate Leakage = 0.000757657 W
            Runtime Dynamic = 0.00127838 W

              Global Predictor:
                Area = 0.0435221 mm^2
                Peak Dynamic = 0.0168831 W
                Subthreshold Leakage = 0.00759719 W
                Subthreshold Leakage with power gating = 0.0039236 W
                Gate Leakage = 0.000278362 W
                Runtime Dynamic = 0.000229723 W

              Local Predictor:
              L1_Local Predictor:
                Area = 0.0257064 mm^2
                Peak Dynamic = 0.0142575 W
                Subthreshold Leakage = 0.00384344 W
                Subthreshold Leakage with power gating = 0.00198631 W
                Gate Leakage = 0.000154548 W
                Runtime Dynamic = 0.000198531 W

              L2_Local Predictor:
                Area = 0.0151917 mm^2
                Peak Dynamic = 0.00527447 W
                Subthreshold Leakage = 0.00181347 W
                Subthreshold Leakage with power gating = 0.000957045 W
                Gate Leakage = 8.00196e-05 W
                Runtime Dynamic = 7.60024e-05 W

              Chooser:
                Area = 0.0435221 mm^2
                Peak Dynamic = 0.0168831 W
                Subthreshold Leakage = 0.00759719 W
                Subthreshold Leakage with power gating = 0.0039236 W
                Gate Leakage = 0.000278362 W
                Runtime Dynamic = 0.000229723 W

              RAS:
                Area = 0.0105732 mm^2
                Peak Dynamic = 0.0117602 W
                Subthreshold Leakage = 0.000932505 W
                Subthreshold Leakage with power gating = 0.000494733 W
                Gate Leakage = 4.63858e-05 W
                Runtime Dynamic = 0.000620407 W

          Instruction Buffer:
            Area = 0.0226323 mm^2
            Peak Dynamic = 0.606827 W
            Subthreshold Leakage = 0.00151885 W
            Subthreshold Leakage with power gating = 0.000701682 W
            Gate Leakage = 6.83558e-05 W
            Runtime Dynamic = 0.0415183 W

          Instruction Decoder:
            Area = 1.85799 mm^2
            Peak Dynamic = 1.37404 W
            Subthreshold Leakage = 0.442943 W
            Subthreshold Leakage with power gating = 0.166104 W
            Gate Leakage = 0.0222493 W
            Runtime Dynamic = 0.141015 W

      Renaming Unit:
        Area = 0.369768 mm^2
        Peak Dynamic = 4.56169 W
        Subthreshold Leakage = 0.070483 W
        Subthreshold Leakage with power gating = 0.0362779 W
        Gate Leakage = 0.00863632 W
        Runtime Dynamic = 0.378963 W

          Int Front End RAT:
            Area = 0.114751 mm^2
            Peak Dynamic = 0.86945 W
            Subthreshold Leakage = 0.00611897 W
            Subthreshold Leakage with power gating = 0.00348781 W
            Gate Leakage = 0.00038343 W
            Runtime Dynamic = 0.0779839 W

          FP Front End RAT:
            Area = 0.168486 mm^2
            Peak Dynamic = 3.33511 W
            Subthreshold Leakage = 0.0437281 W
            Subthreshold Leakage with power gating = 0.024925 W
            Gate Leakage = 0.00489731 W
            Runtime Dynamic = 0.289261 W

          Free List:
            Area = 0.0414755 mm^2
            Peak Dynamic = 0.0401324 W
            Subthreshold Leakage = 0.000670426 W
            Subthreshold Leakage with power gating = 0.000377987 W
            Gate Leakage = 4.15911e-05 W
            Runtime Dynamic = 0.0117182 W

      Load Store Unit:
        Area = 3.20041 mm^2
        Peak Dynamic = 1.49566 W
        Subthreshold Leakage = 0.32315 W
        Subthreshold Leakage with power gating = 0.176854 W
        Gate Leakage = 0.0235039 W
        Runtime Dynamic = 0.117769 W

          Data Cache:
            Area = 2.20958 mm^2
            Peak Dynamic = 1.44195 W
            Subthreshold Leakage = 0.259202 W
            Subthreshold Leakage with power gating = 0.144298 W
            Gate Leakage = 0.0162912 W
            Runtime Dynamic = 0.0505686 W

          LoadQ:
            Area = 0.0836782 mm^2
            Peak Dynamic = 0.0113291 W
            Subthreshold Leakage = 0.00941961 W
            Subthreshold Leakage with power gating = 0.00536918 W
            Gate Leakage = 0.00059896 W
            Runtime Dynamic = 0.011329 W

          StoreQ:
            Area = 0.322079 mm^2
            Peak Dynamic = 0.0279356 W
            Subthreshold Leakage = 0.0345621 W
            Subthreshold Leakage with power gating = 0.0197004 W
            Gate Leakage = 0.00329971 W
            Runtime Dynamic = 0.055871 W

      Memory Management Unit:
        Area = 0.434579 mm^2
        Peak Dynamic = 0.339841 W
        Subthreshold Leakage = 0.0769113 W
        Subthreshold Leakage with power gating = 0.0399462 W
        Gate Leakage = 0.00813591 W
        Runtime Dynamic = 0.0195956 W

          Itlb:
            Area = 0.301552 mm^2
            Peak Dynamic = 0.164203 W
            Subthreshold Leakage = 0.0413758 W
            Subthreshold Leakage with power gating = 0.0235842 W
            Gate Leakage = 0.00393464 W
            Runtime Dynamic = 0.00907926 W

          Dtlb:
            Area = 0.0879726 mm^2
            Peak Dynamic = 0.00991445 W
            Subthreshold Leakage = 0.0155699 W
            Subthreshold Leakage with power gating = 0.00887485 W
            Gate Leakage = 0.00088729 W
            Runtime Dynamic = 0.0105163 W

      Execution Unit:
        Area = 8.2042 mm^2
        Peak Dynamic = 5.91823 W
        Subthreshold Leakage = 1.83518 W
        Subthreshold Leakage with power gating = 0.709678 W
        Gate Leakage = 0.122718 W
        Runtime Dynamic = 2.07614 W

          Register Files:
            Area = 0.570804 mm^2
            Peak Dynamic = 0.172184 W
            Subthreshold Leakage = 0.0101387 W
            Subthreshold Leakage with power gating = 0.00423643 W
            Gate Leakage = 0.000622708 W
            Runtime Dynamic = 0.0490283 W

              Integer RF:
                Area = 0.362673 mm^2
                Peak Dynamic = 0.0892717 W
                Subthreshold Leakage = 0.00614175 W
                Subthreshold Leakage with power gating = 0.00246675 W
                Gate Leakage = 0.00038992 W
                Runtime Dynamic = 0.0431886 W

              Floating Point RF:
                Area = 0.208131 mm^2
                Peak Dynamic = 0.082912 W
                Subthreshold Leakage = 0.00399698 W
                Subthreshold Leakage with power gating = 0.00176968 W
                Gate Leakage = 0.000232788 W
                Runtime Dynamic = 0.00583976 W

          Instruction Scheduler:
            Area = 2.17927 mm^2
            Peak Dynamic = 4.84781 W
            Subthreshold Leakage = 0.114878 W
            Subthreshold Leakage with power gating = 0.0641291 W
            Gate Leakage = 0.00730101 W
            Runtime Dynamic = 0.608906 W

              Instruction Window:
                Area = 1.00996 mm^2
                Peak Dynamic = 2.07911 W
                Subthreshold Leakage = 0.0800117 W
                Subthreshold Leakage with power gating = 0.0455351 W
                Gate Leakage = 0.00529112 W
                Runtime Dynamic = 0.278955 W

              FP Instruction Window:
                Area = 0.328073 mm^2
                Peak Dynamic = 1.20978 W
                Subthreshold Leakage = 0.017004 W
                Subthreshold Leakage with power gating = 0.00962066 W
                Gate Leakage = 0.00115349 W
                Runtime Dynamic = 0.161093 W

              ROB:
                Area = 0.841232 mm^2
                Peak Dynamic = 1.55892 W
                Subthreshold Leakage = 0.0178624 W
                Subthreshold Leakage with power gating = 0.00897339 W
                Gate Leakage = 0.000856399 W
                Runtime Dynamic = 0.168858 W

          Integer ALUs (Count: 6 ):
            Area = 0.47087 mm^2
            Peak Dynamic = 0.0919489 W
            Subthreshold Leakage = 0.40222 W
            Subthreshold Leakage with power gating = 0.150833 W
            Gate Leakage = 0.0265291 W
            Runtime Dynamic = 0.193022 W

          Floating Point Units (FPUs) (Count: 2 ):
            Area = 4.6585 mm^2
            Peak Dynamic = 0.43887 W
            Subthreshold Leakage = 0.994829 W
            Subthreshold Leakage with power gating = 0.373061 W
            Gate Leakage = 0.0656156 W
            Runtime Dynamic = 0.497098 W

          Complex ALUs (Mul/Div) (Count: 1 ):
            Area = 0.235435 mm^2
            Peak Dynamic = 0.109246 W
            Subthreshold Leakage = 0.20111 W
            Subthreshold Leakage with power gating = 0.0754163 W
            Gate Leakage = 0.0132646 W
            Runtime Dynamic = 0.288495 W

          Results Broadcast Bus:
            Area Overhead = 0.0442632 mm^2
            Peak Dynamic = 0.245646 W
            Subthreshold Leakage = 0.0920413 W
            Subthreshold Leakage with power gating = 0.0345155 W
            Gate Leakage = 0.00607074 W
            Runtime Dynamic = 0.439588 W

    L2
    Area = 4.53318 mm^2
    Peak Dynamic = 0.0401037 W
    Subthreshold Leakage = 0.834142 W
    Subthreshold Leakage with power gating = 0.401066 W
    Gate Leakage = 0.015464 W
    Runtime Dynamic = 0.0121485 W

*****************************************************************************************
Core:
      Area = 25.243 mm^2
      Peak Dynamic = 16.4593 W
      Subthreshold Leakage = 5.77309 W
      Subthreshold Leakage with power gating = 2.40346 W
      Gate Leakage = 0.343777 W
      Runtime Dynamic = 2.79804 W

      Instruction Fetch Unit:
        Area = 4.10413 mm^2
        Peak Dynamic = 4.10276 W
        Subthreshold Leakage = 0.755383 W
        Subthreshold Leakage with power gating = 0.335447 W
        Gate Leakage = 0.0414628 W
        Runtime Dynamic = 0.192484 W

          Instruction Cache:
            Area = 1.3904 mm^2
            Peak Dynamic = 1.75404 W
            Subthreshold Leakage = 0.189818 W
            Subthreshold Leakage with power gating = 0.10729 W
            Gate Leakage = 0.0123459 W
            Runtime Dynamic = 0.00630526 W

          Branch Target Buffer:
            Area = 0.64954 mm^2
            Peak Dynamic = 0.177867 W
            Subthreshold Leakage = 0.0811682 W
            Subthreshold Leakage with power gating = 0.0435357 W
            Gate Leakage = 0.00272758 W
            Runtime Dynamic = 0.00226397 W

          Branch Predictor:
            Area = 0.138516 mm^2
            Peak Dynamic = 0.0597838 W
            Subthreshold Leakage = 0.0199703 W
            Subthreshold Leakage with power gating = 0.0103282 W
            Gate Leakage = 0.000757657 W
            Runtime Dynamic = 0.00128044 W

              Global Predictor:
                Area = 0.0435221 mm^2
                Peak Dynamic = 0.0168831 W
                Subthreshold Leakage = 0.00759719 W
                Subthreshold Leakage with power gating = 0.0039236 W
                Gate Leakage = 0.000278362 W
                Runtime Dynamic = 0.000230318 W

              Local Predictor:
              L1_Local Predictor:
                Area = 0.0257064 mm^2
                Peak Dynamic = 0.0142575 W
                Subthreshold Leakage = 0.00384344 W
                Subthreshold Leakage with power gating = 0.00198631 W
                Gate Leakage = 0.000154548 W
                Runtime Dynamic = 0.000199048 W

              L2_Local Predictor:
                Area = 0.0151917 mm^2
                Peak Dynamic = 0.00527447 W
                Subthreshold Leakage = 0.00181347 W
                Subthreshold Leakage with power gating = 0.000957045 W
                Gate Leakage = 8.00196e-05 W
                Runtime Dynamic = 7.62021e-05 W

              Chooser:
                Area = 0.0435221 mm^2
                Peak Dynamic = 0.0168831 W
                Subthreshold Leakage = 0.00759719 W
                Subthreshold Leakage with power gating = 0.0039236 W
                Gate Leakage = 0.000278362 W
                Runtime Dynamic = 0.000230318 W

              RAS:
                Area = 0.0105732 mm^2
                Peak Dynamic = 0.0117602 W
                Subthreshold Leakage = 0.000932505 W
                Subthreshold Leakage with power gating = 0.000494733 W
                Gate Leakage = 4.63858e-05 W
                Runtime Dynamic = 0.000620751 W

          Instruction Buffer:
            Area = 0.0226323 mm^2
            Peak Dynamic = 0.606827 W
            Subthreshold Leakage = 0.00151885 W
            Subthreshold Leakage with power gating = 0.000701682 W
            Gate Leakage = 6.83558e-05 W
            Runtime Dynamic = 0.0415413 W

          Instruction Decoder:
            Area = 1.85799 mm^2
            Peak Dynamic = 1.37404 W
            Subthreshold Leakage = 0.442943 W
            Subthreshold Leakage with power gating = 0.166104 W
            Gate Leakage = 0.0222493 W
            Runtime Dynamic = 0.141093 W

      Renaming Unit:
        Area = 0.369768 mm^2
        Peak Dynamic = 4.56169 W
        Subthreshold Leakage = 0.070483 W
        Subthreshold Leakage with power gating = 0.0362779 W
        Gate Leakage = 0.00863632 W
        Runtime Dynamic = 0.379015 W

          Int Front End RAT:
            Area = 0.114751 mm^2
            Peak Dynamic = 0.86945 W
            Subthreshold Leakage = 0.00611897 W
            Subthreshold Leakage with power gating = 0.00348781 W
            Gate Leakage = 0.00038343 W
            Runtime Dynamic = 0.0780314 W

          FP Front End RAT:
            Area = 0.168486 mm^2
            Peak Dynamic = 3.33511 W
            Subthreshold Leakage = 0.0437281 W
            Subthreshold Leakage with power gating = 0.024925 W
            Gate Leakage = 0.00489731 W
            Runtime Dynamic = 0.289261 W

          Free List:
            Area = 0.0414755 mm^2
            Peak Dynamic = 0.0401324 W
            Subthreshold Leakage = 0.000670426 W
            Subthreshold Leakage with power gating = 0.000377987 W
            Gate Leakage = 4.15911e-05 W
            Runtime Dynamic = 0.0117227 W

      Load Store Unit:
        Area = 3.20041 mm^2
        Peak Dynamic = 1.4963 W
        Subthreshold Leakage = 0.32315 W
        Subthreshold Leakage with power gating = 0.176854 W
        Gate Leakage = 0.0235039 W
        Runtime Dynamic = 0.117991 W

          Data Cache:
            Area = 2.20958 mm^2
            Peak Dynamic = 1.44245 W
            Subthreshold Leakage = 0.259202 W
            Subthreshold Leakage with power gating = 0.144298 W
            Gate Leakage = 0.0162912 W
            Runtime Dynamic = 0.0506247 W

          LoadQ:
            Area = 0.0836782 mm^2
            Peak Dynamic = 0.0113572 W
            Subthreshold Leakage = 0.00941961 W
            Subthreshold Leakage with power gating = 0.00536918 W
            Gate Leakage = 0.00059896 W
            Runtime Dynamic = 0.0113571 W

          StoreQ:
            Area = 0.322079 mm^2
            Peak Dynamic = 0.0280049 W
            Subthreshold Leakage = 0.0345621 W
            Subthreshold Leakage with power gating = 0.0197004 W
            Gate Leakage = 0.00329971 W
            Runtime Dynamic = 0.0560094 W

      Memory Management Unit:
        Area = 0.434579 mm^2
        Peak Dynamic = 0.339975 W
        Subthreshold Leakage = 0.0769113 W
        Subthreshold Leakage with power gating = 0.0399462 W
        Gate Leakage = 0.00813591 W
        Runtime Dynamic = 0.0196417 W

          Itlb:
            Area = 0.301552 mm^2
            Peak Dynamic = 0.164294 W
            Subthreshold Leakage = 0.0413758 W
            Subthreshold Leakage with power gating = 0.0235842 W
            Gate Leakage = 0.00393464 W
            Runtime Dynamic = 0.00910028 W

          Dtlb:
            Area = 0.0879726 mm^2
            Peak Dynamic = 0.00993903 W
            Subthreshold Leakage = 0.0155699 W
            Subthreshold Leakage with power gating = 0.00887485 W
            Gate Leakage = 0.00088729 W
            Runtime Dynamic = 0.0105415 W

      Execution Unit:
        Area = 8.2042 mm^2
        Peak Dynamic = 5.91841 W
        Subthreshold Leakage = 1.83518 W
        Subthreshold Leakage with power gating = 0.709678 W
        Gate Leakage = 0.122718 W
        Runtime Dynamic = 2.07678 W

          Register Files:
            Area = 0.570804 mm^2
            Peak Dynamic = 0.172208 W
            Subthreshold Leakage = 0.0101387 W
            Subthreshold Leakage with power gating = 0.00423643 W
            Gate Leakage = 0.000622708 W
            Runtime Dynamic = 0.0490555 W

              Integer RF:
                Area = 0.362673 mm^2
                Peak Dynamic = 0.0892958 W
                Subthreshold Leakage = 0.00614175 W
                Subthreshold Leakage with power gating = 0.00246675 W
                Gate Leakage = 0.00038992 W
                Runtime Dynamic = 0.0432125 W

              Floating Point RF:
                Area = 0.208131 mm^2
                Peak Dynamic = 0.082912 W
                Subthreshold Leakage = 0.00399698 W
                Subthreshold Leakage with power gating = 0.00176968 W
                Gate Leakage = 0.000232788 W
                Runtime Dynamic = 0.00584299 W

          Instruction Scheduler:
            Area = 2.17927 mm^2
            Peak Dynamic = 4.84781 W
            Subthreshold Leakage = 0.114878 W
            Subthreshold Leakage with power gating = 0.0641291 W
            Gate Leakage = 0.00730101 W
            Runtime Dynamic = 0.609255 W

              Instruction Window:
                Area = 1.00996 mm^2
                Peak Dynamic = 2.07911 W
                Subthreshold Leakage = 0.0800117 W
                Subthreshold Leakage with power gating = 0.0455351 W
                Gate Leakage = 0.00529112 W
                Runtime Dynamic = 0.27911 W

              FP Instruction Window:
                Area = 0.328073 mm^2
                Peak Dynamic = 1.20978 W
                Subthreshold Leakage = 0.017004 W
                Subthreshold Leakage with power gating = 0.00962066 W
                Gate Leakage = 0.00115349 W
                Runtime Dynamic = 0.161183 W

              ROB:
                Area = 0.841232 mm^2
                Peak Dynamic = 1.55892 W
                Subthreshold Leakage = 0.0178624 W
                Subthreshold Leakage with power gating = 0.00897339 W
                Gate Leakage = 0.000856399 W
                Runtime Dynamic = 0.168963 W

          Integer ALUs (Count: 6 ):
            Area = 0.47087 mm^2
            Peak Dynamic = 0.0920373 W
            Subthreshold Leakage = 0.40222 W
            Subthreshold Leakage with power gating = 0.150833 W
            Gate Leakage = 0.0265291 W
            Runtime Dynamic = 0.19311 W

          Floating Point Units (FPUs) (Count: 2 ):
            Area = 4.6585 mm^2
            Peak Dynamic = 0.43887 W
            Subthreshold Leakage = 0.994829 W
            Subthreshold Leakage with power gating = 0.373061 W
            Gate Leakage = 0.0656156 W
            Runtime Dynamic = 0.497099 W

          Complex ALUs (Mul/Div) (Count: 1 ):
            Area = 0.235435 mm^2
            Peak Dynamic = 0.109247 W
            Subthreshold Leakage = 0.20111 W
            Subthreshold Leakage with power gating = 0.0754163 W
            Gate Leakage = 0.0132646 W
            Runtime Dynamic = 0.288495 W

          Results Broadcast Bus:
            Area Overhead = 0.0442632 mm^2
            Peak Dynamic = 0.245705 W
            Subthreshold Leakage = 0.0920413 W
            Subthreshold Leakage with power gating = 0.0345155 W
            Gate Leakage = 0.00607074 W
            Runtime Dynamic = 0.439766 W

    L2
    Area = 4.53318 mm^2
    Peak Dynamic = 0.0401444 W
    Subthreshold Leakage = 0.834142 W
    Subthreshold Leakage with power gating = 0.401066 W
    Gate Leakage = 0.015464 W
    Runtime Dynamic = 0.0121239 W

*****************************************************************************************
      L3
      Area = 61.9075 mm^2
      Peak Dynamic = 0.051482 W
      Subthreshold Leakage = 6.80085 W
      Subthreshold Leakage with power gating = 3.32364 W
      Gate Leakage = 0.0484137 W
      Runtime Dynamic = 0.0399383 W

*****************************************************************************************
BUSES
      Area = 1.34036 mm^2
      Peak Dynamic = 0 W
      Subthreshold Leakage = 0.0695897 W
      Subthreshold Leakage with power gating = 0.0260961 W
      Gate Leakage = 0.00667341 W
      Runtime Dynamic = 0 W

      Bus: 
        Area = 1.34036 mm^2
        Peak Dynamic = 0 W
        Subthreshold Leakage = 0.0695897 W
        Subthreshold Leakage with power gating = 0.0260961 W
        Gate Leakage = 0.00667341 W
        Runtime Dynamic = 0 W

*****************************************************************************************
