McPAT (version 1.0 of Aug, 2013) is computing the target processor...
 
DB write error: -30977
DB write error: -30977
DB write error: -30977
DB write error: -30977
DB write error: -30977
DB write error: -30977
DB write error: -30977
DB write error: -30977
DB write error: -30977
DB write error: -30977
DB write error: -30977
DB write error: -30977
DB write error: -30977
DB write error: -30977
DB write error: -30977
DB write error: -30977
DB write error: -30977
DB write error: -30977
DB write error: -30977
DB write error: -30977
DB write error: -30977
DB write error: -30977
DB write error: -30977
DB write error: -30977
DB write error: -30977
DB write error: -30977
DB write error: -30977
DB write error: -30977
DB write error: -30977
DB write error: -30977
DB write error: -30977
DB write error: -30977
DB write error: -30977
DB write error: -30977
DB write error: -30977
DB write error: -30977
DB write error: -30977
DB write error: -30977
DB write error: -30977
DB write error: -30977
DB write error: -30977
DB write error: -30977
DB write error: -30977
DB write error: -30977
DB write error: -30977
DB write error: -30977
DB write error: -30977
DB write error: -30977
DB write error: -30977
DB write error: -30977
DB write error: -30977
DB write error: -30977
DB write error: -30977
DB write error: -30977
DB write error: -30977
DB write error: -30977
DB write error: -30977
DB write error: -30977
DB write error: -30977
DB write error: -30977
DB write error: -30977
DB write error: -30977
DB write error: -30977
DB write error: -30977
DB write error: -30977
DB write error: -30977
DB write error: -30977
DB write error: -30977
DB write error: -30977
DB write error: -30977
DB write error: -30977
DB write error: -30977
DB write error: -30977
DB write error: -30977
DB write error: -30977
DB write error: -30977
DB write error: -30977
DB write error: -30977
DB write error: -30977
DB write error: -30977
DB write error: -30977
DB write error: -30977
DB write error: -30977
DB write error: -30977
DB write error: -30977
DB write error: -30977
DB write error: -30977
DB write error: -30977
DB write error: -30977
DB write error: -30977
DB write error: -30977
DB write error: -30977
DB write error: -30977
DB write error: -30977
DB write error: -30977
DB write error: -30977
DB write error: -30977
DB write error: -30977
DB write error: -30977
DB write error: -30977
DB write error: -30977
DB write error: -30977
DB write error: -30977
DB write error: -30977
DB write error: -30977
DB write error: -30977
DB write error: -30977
DB write error: -30977
DB write error: -30977
DB write error: -30977
DB write error: -30977
DB write error: -30977
DB write error: -30977
DB write error: -30977
DB write error: -30977
DB write error: -30977
DB write error: -30977
DB write error: -30977
DB write error: -30977
DB write error: -30977
DB write error: -30977
DB write error: -30977
DB write error: -30977
DB write error: -30977
DB write error: -30977
DB write error: -30977
DB write error: -30977
DB write error: -30977
DB write error: -30977
DB write error: -30977
DB write error: -30977
DB write error: -30977
DB write error: -30977
DB write error: -30977
DB write error: -30977
DB write error: -30977
DB write error: -30977
DB write error: -30977
DB write error: -30977
DB write error: -30977
DB write error: -30977
DB write error: -30977
DB write error: -30977
DB write error: -30977
DB write error: -30977
DB write error: -30977
DB write error: -30977
DB write error: -30977
DB write error: -30977
DB write error: -30977
DB write error: -30977
DB write error: -30977
DB write error: -30977
DB write error: -30977
DB write error: -30977
DB write error: -30977
DB write error: -30977
DB write error: -30977
DB write error: -30977
DB write error: -30977
DB write error: -30977
DB write error: -30977
DB write error: -30977
DB write error: -30977
DB write error: -30977
DB write error: -30977
DB write error: -30977
DB write error: -30977
DB write error: -30977
DB write error: -30977
DB write error: -30977
DB write error: -30977
DB write error: -30977
DB write error: -30977
DB write error: -30977
DB write error: -30977
DB write error: -30977
DB write error: -30977
DB write error: -30977
DB write error: -30977
DB write error: -30977
DB write error: -30977
DB write error: -30977
DB write error: -30977
DB write error: -30977
DB write error: -30977
DB write error: -30977
DB write error: -30977
DB write error: -30977
DB write error: -30977
DB write error: -30977
DB write error: -30977
DB write error: -30977
DB write error: -30977
DB write error: -30977
DB write error: -30977
DB write error: -30977
DB write error: -30977
DB write error: -30977
DB write error: -30977
DB write error: -30977
DB write error: -30977
DB write error: -30977
DB write error: -30977
DB write error: -30977
DB write error: -30977
DB write error: -30977
DB write error: -30977
DB write error: -30977
DB write error: -30977
DB write error: -30977
DB write error: -30977
DB write error: -30977
DB write error: -30977
DB write error: -30977
DB write error: -30977
DB write error: -30977
DB write error: -30977
DB write error: -30977
DB write error: -30977
DB write error: -30977
DB write error: -30977
DB write error: -30977
DB write error: -30977
DB write error: -30977
DB write error: -30977
DB write error: -30977
DB write error: -30977
DB write error: -30977
DB write error: -30977
DB write error: -30977
DB write error: -30977
DB write error: -30977
DB write error: -30977
DB write error: -30977
DB write error: -30977
DB write error: -30977
DB write error: -30977
DB write error: -30977
DB write error: -30977
DB write error: -30977
DB write error: -30977
DB write error: -30977
DB write error: -30977
DB write error: -30977
DB write error: -30977
DB write error: -30977
DB write error: -30977
DB write error: -30977
DB write error: -30977
DB write error: -30977
DB write error: -30977
DB write error: -30977
DB write error: -30977
DB write error: -30977
DB write error: -30977
DB write error: -30977
DB write error: -30977
DB write error: -30977
DB write error: -30977
DB write error: -30977
DB write error: -30977
DB write error: -30977
DB write error: -30977
DB write error: -30977
DB write error: -30977
DB write error: -30977
DB write error: -30977
DB write error: -30977
DB write error: -30977
DB write error: -30977
DB write error: -30977
DB write error: -30977
DB write error: -30977
DB write error: -30977
DB write error: -30977
DB write error: -30977
DB write error: -30977
DB write error: -30977
DB write error: -30977
DB write error: -30977
DB write error: -30977
DB write error: -30977
DB write error: -30977
DB write error: -30977
DB write error: -30977
DB write error: -30977
DB write error: -30977
DB write error: -30977
DB write error: -30977
DB write error: -30977
DB write error: -30977
DB write error: -30977
DB write error: -30977
DB write error: -30977
DB write error: -30977
DB write error: -30977
DB write error: -30977
DB write error: -30977
DB write error: -30977
DB write error: -30977
DB write error: -30977
DB write error: -30977
DB write error: -30977
DB write error: -30977
DB write error: -30977
DB write error: -30977
DB write error: -30977
DB write error: -30977
DB write error: -30977
DB write error: -30977
DB write error: -30977
DB write error: -30977
DB write error: -30977
DB write error: -30977
DB write error: -30977
DB write error: -30977
DB write error: -30977
DB write error: -30977
DB write error: -30977
DB write error: -30977
DB write error: -30977
DB write error: -30977
DB write error: -30977
DB write error: -30977
DB write error: -30977
DB write error: -30977
DB write error: -30977
DB write error: -30977
DB write error: -30977
DB write error: -30977
DB write error: -30977
DB write error: -30977
DB write error: -30977
DB write error: -30977
DB write error: -30977
DB write error: -30977
DB write error: -30977
DB write error: -30977
DB write error: -30977
DB write error: -30977
DB write error: -30977
DB write error: -30977
DB write error: -30977
DB write error: -30977
DB write error: -30977
DB write error: -30977
DB write error: -30977
DB write error: -30977
DB write error: -30977
DB write error: -30977
DB write error: -30977
DB write error: -30977
DB write error: -30977
DB write error: -30977
DB write error: -30977
DB write error: -30977
DB write error: -30977
DB write error: -30977
DB write error: -30977
DB write error: -30977
DB write error: -30977
DB write error: -30977
DB write error: -30977
DB write error: -30977
DB write error: -30977
DB write error: -30977
DB write error: -30977
DB write error: -30977
DB write error: -30977
DB write error: -30977
DB write error: -30977
DB write error: -30977
DB write error: -30977
DB write error: -30977
DB write error: -30977
DB write error: -30977
DB write error: -30977
DB write error: -30977
DB write error: -30977
DB write error: -30977
DB write error: -30977
DB write error: -30977
DB write error: -30977
DB write error: -30977
DB write error: -30977
DB write error: -30977
DB write error: -30977
DB write error: -30977
DB write error: -30977
DB write error: -30977
DB write error: -30977
DB write error: -30977

McPAT (version 1.0 of Aug, 2013) results  (current print level is 5)
*****************************************************************************************
  Technology 45 nm
  Using Long Channel Devices When Appropriate
  Interconnect metal projection= aggressive interconnect technology projection
  Core clock Rate(MHz) 2660

*****************************************************************************************
Processor: 
  Area = 164.11 mm^2
  Peak Power = 97.3355 W
  Total Leakage = 31.3868 W
  Peak Dynamic = 65.9487 W
  Subthreshold Leakage = 29.9571 W
  Subthreshold Leakage with power gating = 13.3003 W
  Gate Leakage = 1.42965 W
  Runtime Dynamic = 11.263 W

  Total Cores: 4 cores 
  Device Type= ITRS high performance device type
    Area = 100.972 mm^2
    Peak Dynamic = 65.8994 W
    Subthreshold Leakage = 23.0924 W
    Subthreshold Leakage with power gating = 9.61384 W
    Gate Leakage = 1.37511 W
    Runtime Dynamic = 11.2242 W

  Total L3s: 
  Device Type= ITRS high performance device type
    Area = 61.9075 mm^2
    Peak Dynamic = 0.0493583 W
    Subthreshold Leakage = 6.80085 W
    Subthreshold Leakage with power gating = 3.32364 W
    Gate Leakage = 0.0484137 W
    Runtime Dynamic = 0.0388285 W

  Total NoCs (Network/Bus): 
  Device Type= ITRS high performance device type
    Area = 1.231 mm^2
    Peak Dynamic = 0 W
    Subthreshold Leakage = 0.0639116 W
    Subthreshold Leakage with power gating = 0.0239668 W
    Gate Leakage = 0.00612889 W
    Runtime Dynamic = 0 W

*****************************************************************************************
Core:
      Area = 25.243 mm^2
      Peak Dynamic = 16.4727 W
      Subthreshold Leakage = 5.77309 W
      Subthreshold Leakage with power gating = 2.40346 W
      Gate Leakage = 0.343777 W
      Runtime Dynamic = 2.80492 W

      Instruction Fetch Unit:
        Area = 4.10413 mm^2
        Peak Dynamic = 4.10912 W
        Subthreshold Leakage = 0.755383 W
        Subthreshold Leakage with power gating = 0.335447 W
        Gate Leakage = 0.0414628 W
        Runtime Dynamic = 0.193194 W

          Instruction Cache:
            Area = 1.3904 mm^2
            Peak Dynamic = 1.75996 W
            Subthreshold Leakage = 0.189818 W
            Subthreshold Leakage with power gating = 0.10729 W
            Gate Leakage = 0.0123459 W
            Runtime Dynamic = 0.00631284 W

          Branch Target Buffer:
            Area = 0.64954 mm^2
            Peak Dynamic = 0.177867 W
            Subthreshold Leakage = 0.0811682 W
            Subthreshold Leakage with power gating = 0.0435357 W
            Gate Leakage = 0.00272758 W
            Runtime Dynamic = 0.00232865 W

          Branch Predictor:
            Area = 0.138516 mm^2
            Peak Dynamic = 0.0597838 W
            Subthreshold Leakage = 0.0199703 W
            Subthreshold Leakage with power gating = 0.0103282 W
            Gate Leakage = 0.000757657 W
            Runtime Dynamic = 0.00130192 W

              Global Predictor:
                Area = 0.0435221 mm^2
                Peak Dynamic = 0.0168831 W
                Subthreshold Leakage = 0.00759719 W
                Subthreshold Leakage with power gating = 0.0039236 W
                Gate Leakage = 0.000278362 W
                Runtime Dynamic = 0.000237071 W

              Local Predictor:
              L1_Local Predictor:
                Area = 0.0257064 mm^2
                Peak Dynamic = 0.0142575 W
                Subthreshold Leakage = 0.00384344 W
                Subthreshold Leakage with power gating = 0.00198631 W
                Gate Leakage = 0.000154548 W
                Runtime Dynamic = 0.000204932 W

              L2_Local Predictor:
                Area = 0.0151917 mm^2
                Peak Dynamic = 0.00527447 W
                Subthreshold Leakage = 0.00181347 W
                Subthreshold Leakage with power gating = 0.000957045 W
                Gate Leakage = 8.00196e-05 W
                Runtime Dynamic = 7.84808e-05 W

              Chooser:
                Area = 0.0435221 mm^2
                Peak Dynamic = 0.0168831 W
                Subthreshold Leakage = 0.00759719 W
                Subthreshold Leakage with power gating = 0.0039236 W
                Gate Leakage = 0.000278362 W
                Runtime Dynamic = 0.000237071 W

              RAS:
                Area = 0.0105732 mm^2
                Peak Dynamic = 0.0117602 W
                Subthreshold Leakage = 0.000932505 W
                Subthreshold Leakage with power gating = 0.000494733 W
                Gate Leakage = 4.63858e-05 W
                Runtime Dynamic = 0.000622847 W

          Instruction Buffer:
            Area = 0.0226323 mm^2
            Peak Dynamic = 0.606827 W
            Subthreshold Leakage = 0.00151885 W
            Subthreshold Leakage with power gating = 0.000701682 W
            Gate Leakage = 6.83558e-05 W
            Runtime Dynamic = 0.0416816 W

          Instruction Decoder:
            Area = 1.85799 mm^2
            Peak Dynamic = 1.37404 W
            Subthreshold Leakage = 0.442943 W
            Subthreshold Leakage with power gating = 0.166104 W
            Gate Leakage = 0.0222493 W
            Runtime Dynamic = 0.141569 W

      Renaming Unit:
        Area = 0.369768 mm^2
        Peak Dynamic = 4.56169 W
        Subthreshold Leakage = 0.070483 W
        Subthreshold Leakage with power gating = 0.0362779 W
        Gate Leakage = 0.00863632 W
        Runtime Dynamic = 0.378891 W

          Int Front End RAT:
            Area = 0.114751 mm^2
            Peak Dynamic = 0.86945 W
            Subthreshold Leakage = 0.00611897 W
            Subthreshold Leakage with power gating = 0.00348781 W
            Gate Leakage = 0.00038343 W
            Runtime Dynamic = 0.0783269 W

          FP Front End RAT:
            Area = 0.168486 mm^2
            Peak Dynamic = 3.33511 W
            Subthreshold Leakage = 0.0437281 W
            Subthreshold Leakage with power gating = 0.024925 W
            Gate Leakage = 0.00489731 W
            Runtime Dynamic = 0.288819 W

          Free List:
            Area = 0.0414755 mm^2
            Peak Dynamic = 0.0401324 W
            Subthreshold Leakage = 0.000670426 W
            Subthreshold Leakage with power gating = 0.000377987 W
            Gate Leakage = 4.15911e-05 W
            Runtime Dynamic = 0.0117453 W

      Load Store Unit:
        Area = 3.20041 mm^2
        Peak Dynamic = 1.50061 W
        Subthreshold Leakage = 0.32315 W
        Subthreshold Leakage with power gating = 0.176854 W
        Gate Leakage = 0.0235039 W
        Runtime Dynamic = 0.120062 W

          Data Cache:
            Area = 2.20958 mm^2
            Peak Dynamic = 1.44586 W
            Subthreshold Leakage = 0.259202 W
            Subthreshold Leakage with power gating = 0.144298 W
            Gate Leakage = 0.0162912 W
            Runtime Dynamic = 0.0515761 W

          LoadQ:
            Area = 0.0836782 mm^2
            Peak Dynamic = 0.0115458 W
            Subthreshold Leakage = 0.00941961 W
            Subthreshold Leakage with power gating = 0.00536918 W
            Gate Leakage = 0.00059896 W
            Runtime Dynamic = 0.0115459 W

          StoreQ:
            Area = 0.322079 mm^2
            Peak Dynamic = 0.02847 W
            Subthreshold Leakage = 0.0345621 W
            Subthreshold Leakage with power gating = 0.0197004 W
            Gate Leakage = 0.00329971 W
            Runtime Dynamic = 0.0569403 W

      Memory Management Unit:
        Area = 0.434579 mm^2
        Peak Dynamic = 0.340815 W
        Subthreshold Leakage = 0.0769113 W
        Subthreshold Leakage with power gating = 0.0399462 W
        Gate Leakage = 0.00813591 W
        Runtime Dynamic = 0.0198521 W

          Itlb:
            Area = 0.301552 mm^2
            Peak Dynamic = 0.164849 W
            Subthreshold Leakage = 0.0413758 W
            Subthreshold Leakage with power gating = 0.0235842 W
            Gate Leakage = 0.00393464 W
            Runtime Dynamic = 0.00911853 W

          Dtlb:
            Area = 0.0879726 mm^2
            Peak Dynamic = 0.0101041 W
            Subthreshold Leakage = 0.0155699 W
            Subthreshold Leakage with power gating = 0.00887485 W
            Gate Leakage = 0.00088729 W
            Runtime Dynamic = 0.0107336 W

      Execution Unit:
        Area = 8.2042 mm^2
        Peak Dynamic = 5.91837 W
        Subthreshold Leakage = 1.83518 W
        Subthreshold Leakage with power gating = 0.709678 W
        Gate Leakage = 0.122718 W
        Runtime Dynamic = 2.07992 W

          Register Files:
            Area = 0.570804 mm^2
            Peak Dynamic = 0.172152 W
            Subthreshold Leakage = 0.0101387 W
            Subthreshold Leakage with power gating = 0.00423643 W
            Gate Leakage = 0.000622708 W
            Runtime Dynamic = 0.0492212 W

              Integer RF:
                Area = 0.362673 mm^2
                Peak Dynamic = 0.0893662 W
                Subthreshold Leakage = 0.00614175 W
                Subthreshold Leakage with power gating = 0.00246675 W
                Gate Leakage = 0.00038992 W
                Runtime Dynamic = 0.0433584 W

              Floating Point RF:
                Area = 0.208131 mm^2
                Peak Dynamic = 0.0827853 W
                Subthreshold Leakage = 0.00399698 W
                Subthreshold Leakage with power gating = 0.00176968 W
                Gate Leakage = 0.000232788 W
                Runtime Dynamic = 0.00586272 W

          Instruction Scheduler:
            Area = 2.17927 mm^2
            Peak Dynamic = 4.84781 W
            Subthreshold Leakage = 0.114878 W
            Subthreshold Leakage with power gating = 0.0641291 W
            Gate Leakage = 0.00730101 W
            Runtime Dynamic = 0.611367 W

              Instruction Window:
                Area = 1.00996 mm^2
                Peak Dynamic = 2.07911 W
                Subthreshold Leakage = 0.0800117 W
                Subthreshold Leakage with power gating = 0.0455351 W
                Gate Leakage = 0.00529112 W
                Runtime Dynamic = 0.280052 W

              FP Instruction Window:
                Area = 0.328073 mm^2
                Peak Dynamic = 1.20978 W
                Subthreshold Leakage = 0.017004 W
                Subthreshold Leakage with power gating = 0.00962066 W
                Gate Leakage = 0.00115349 W
                Runtime Dynamic = 0.161727 W

              ROB:
                Area = 0.841232 mm^2
                Peak Dynamic = 1.55892 W
                Subthreshold Leakage = 0.0178624 W
                Subthreshold Leakage with power gating = 0.00897339 W
                Gate Leakage = 0.000856399 W
                Runtime Dynamic = 0.169588 W

          Integer ALUs (Count: 6 ):
            Area = 0.47087 mm^2
            Peak Dynamic = 0.0926773 W
            Subthreshold Leakage = 0.40222 W
            Subthreshold Leakage with power gating = 0.150833 W
            Gate Leakage = 0.0265291 W
            Runtime Dynamic = 0.193668 W

          Floating Point Units (FPUs) (Count: 2 ):
            Area = 4.6585 mm^2
            Peak Dynamic = 0.4382 W
            Subthreshold Leakage = 0.994829 W
            Subthreshold Leakage with power gating = 0.373061 W
            Gate Leakage = 0.0656156 W
            Runtime Dynamic = 0.496803 W

          Complex ALUs (Mul/Div) (Count: 1 ):
            Area = 0.235435 mm^2
            Peak Dynamic = 0.10908 W
            Subthreshold Leakage = 0.20111 W
            Subthreshold Leakage with power gating = 0.0754163 W
            Gate Leakage = 0.0132646 W
            Runtime Dynamic = 0.288364 W

          Results Broadcast Bus:
            Area Overhead = 0.0442632 mm^2
            Peak Dynamic = 0.245829 W
            Subthreshold Leakage = 0.0920413 W
            Subthreshold Leakage with power gating = 0.0345155 W
            Gate Leakage = 0.00607074 W
            Runtime Dynamic = 0.440497 W

    L2
    Area = 4.53318 mm^2
    Peak Dynamic = 0.0421038 W
    Subthreshold Leakage = 0.834142 W
    Subthreshold Leakage with power gating = 0.401066 W
    Gate Leakage = 0.015464 W
    Runtime Dynamic = 0.0130003 W

*****************************************************************************************
Core:
      Area = 25.243 mm^2
      Peak Dynamic = 16.4765 W
      Subthreshold Leakage = 5.77309 W
      Subthreshold Leakage with power gating = 2.40346 W
      Gate Leakage = 0.343777 W
      Runtime Dynamic = 2.80695 W

      Instruction Fetch Unit:
        Area = 4.10413 mm^2
        Peak Dynamic = 4.11089 W
        Subthreshold Leakage = 0.755383 W
        Subthreshold Leakage with power gating = 0.335447 W
        Gate Leakage = 0.0414628 W
        Runtime Dynamic = 0.193411 W

          Instruction Cache:
            Area = 1.3904 mm^2
            Peak Dynamic = 1.76161 W
            Subthreshold Leakage = 0.189818 W
            Subthreshold Leakage with power gating = 0.10729 W
            Gate Leakage = 0.0123459 W
            Runtime Dynamic = 0.00635361 W

          Branch Target Buffer:
            Area = 0.64954 mm^2
            Peak Dynamic = 0.177867 W
            Subthreshold Leakage = 0.0811682 W
            Subthreshold Leakage with power gating = 0.0435357 W
            Gate Leakage = 0.00272758 W
            Runtime Dynamic = 0.00233129 W

          Branch Predictor:
            Area = 0.138516 mm^2
            Peak Dynamic = 0.0597838 W
            Subthreshold Leakage = 0.0199703 W
            Subthreshold Leakage with power gating = 0.0103282 W
            Gate Leakage = 0.000757657 W
            Runtime Dynamic = 0.00130306 W

              Global Predictor:
                Area = 0.0435221 mm^2
                Peak Dynamic = 0.0168831 W
                Subthreshold Leakage = 0.00759719 W
                Subthreshold Leakage with power gating = 0.0039236 W
                Gate Leakage = 0.000278362 W
                Runtime Dynamic = 0.000237273 W

              Local Predictor:
              L1_Local Predictor:
                Area = 0.0257064 mm^2
                Peak Dynamic = 0.0142575 W
                Subthreshold Leakage = 0.00384344 W
                Subthreshold Leakage with power gating = 0.00198631 W
                Gate Leakage = 0.000154548 W
                Runtime Dynamic = 0.000205087 W

              L2_Local Predictor:
                Area = 0.0151917 mm^2
                Peak Dynamic = 0.00527447 W
                Subthreshold Leakage = 0.00181347 W
                Subthreshold Leakage with power gating = 0.000957045 W
                Gate Leakage = 8.00196e-05 W
                Runtime Dynamic = 7.85303e-05 W

              Chooser:
                Area = 0.0435221 mm^2
                Peak Dynamic = 0.0168831 W
                Subthreshold Leakage = 0.00759719 W
                Subthreshold Leakage with power gating = 0.0039236 W
                Gate Leakage = 0.000278362 W
                Runtime Dynamic = 0.000237273 W

              RAS:
                Area = 0.0105732 mm^2
                Peak Dynamic = 0.0117602 W
                Subthreshold Leakage = 0.000932505 W
                Subthreshold Leakage with power gating = 0.000494733 W
                Gate Leakage = 4.63858e-05 W
                Runtime Dynamic = 0.000623432 W

          Instruction Buffer:
            Area = 0.0226323 mm^2
            Peak Dynamic = 0.606827 W
            Subthreshold Leakage = 0.00151885 W
            Subthreshold Leakage with power gating = 0.000701682 W
            Gate Leakage = 6.83558e-05 W
            Runtime Dynamic = 0.0417207 W

          Instruction Decoder:
            Area = 1.85799 mm^2
            Peak Dynamic = 1.37404 W
            Subthreshold Leakage = 0.442943 W
            Subthreshold Leakage with power gating = 0.166104 W
            Gate Leakage = 0.0222493 W
            Runtime Dynamic = 0.141702 W

      Renaming Unit:
        Area = 0.369768 mm^2
        Peak Dynamic = 4.56169 W
        Subthreshold Leakage = 0.070483 W
        Subthreshold Leakage with power gating = 0.0362779 W
        Gate Leakage = 0.00863632 W
        Runtime Dynamic = 0.378999 W

          Int Front End RAT:
            Area = 0.114751 mm^2
            Peak Dynamic = 0.86945 W
            Subthreshold Leakage = 0.00611897 W
            Subthreshold Leakage with power gating = 0.00348781 W
            Gate Leakage = 0.00038343 W
            Runtime Dynamic = 0.0784096 W

          FP Front End RAT:
            Area = 0.168486 mm^2
            Peak Dynamic = 3.33511 W
            Subthreshold Leakage = 0.0437281 W
            Subthreshold Leakage with power gating = 0.024925 W
            Gate Leakage = 0.00489731 W
            Runtime Dynamic = 0.288836 W

          Free List:
            Area = 0.0414755 mm^2
            Peak Dynamic = 0.0401324 W
            Subthreshold Leakage = 0.000670426 W
            Subthreshold Leakage with power gating = 0.000377987 W
            Gate Leakage = 4.15911e-05 W
            Runtime Dynamic = 0.0117532 W

      Load Store Unit:
        Area = 3.20041 mm^2
        Peak Dynamic = 1.50203 W
        Subthreshold Leakage = 0.32315 W
        Subthreshold Leakage with power gating = 0.176854 W
        Gate Leakage = 0.0235039 W
        Runtime Dynamic = 0.120454 W

          Data Cache:
            Area = 2.20958 mm^2
            Peak Dynamic = 1.44699 W
            Subthreshold Leakage = 0.259202 W
            Subthreshold Leakage with power gating = 0.144298 W
            Gate Leakage = 0.0162912 W
            Runtime Dynamic = 0.0515977 W

          LoadQ:
            Area = 0.0836782 mm^2
            Peak Dynamic = 0.0116082 W
            Subthreshold Leakage = 0.00941961 W
            Subthreshold Leakage with power gating = 0.00536918 W
            Gate Leakage = 0.00059896 W
            Runtime Dynamic = 0.0116082 W

          StoreQ:
            Area = 0.322079 mm^2
            Peak Dynamic = 0.0286238 W
            Subthreshold Leakage = 0.0345621 W
            Subthreshold Leakage with power gating = 0.0197004 W
            Gate Leakage = 0.00329971 W
            Runtime Dynamic = 0.0572477 W

      Memory Management Unit:
        Area = 0.434579 mm^2
        Peak Dynamic = 0.341064 W
        Subthreshold Leakage = 0.0769113 W
        Subthreshold Leakage with power gating = 0.0399462 W
        Gate Leakage = 0.00813591 W
        Runtime Dynamic = 0.0199627 W

          Itlb:
            Area = 0.301552 mm^2
            Peak Dynamic = 0.165003 W
            Subthreshold Leakage = 0.0413758 W
            Subthreshold Leakage with power gating = 0.0235842 W
            Gate Leakage = 0.00393464 W
            Runtime Dynamic = 0.00917422 W

          Dtlb:
            Area = 0.0879726 mm^2
            Peak Dynamic = 0.0101587 W
            Subthreshold Leakage = 0.0155699 W
            Subthreshold Leakage with power gating = 0.00887485 W
            Gate Leakage = 0.00088729 W
            Runtime Dynamic = 0.0107885 W

      Execution Unit:
        Area = 8.2042 mm^2
        Peak Dynamic = 5.91872 W
        Subthreshold Leakage = 1.83518 W
        Subthreshold Leakage with power gating = 0.709678 W
        Gate Leakage = 0.122718 W
        Runtime Dynamic = 2.08114 W

          Register Files:
            Area = 0.570804 mm^2
            Peak Dynamic = 0.172199 W
            Subthreshold Leakage = 0.0101387 W
            Subthreshold Leakage with power gating = 0.00423643 W
            Gate Leakage = 0.000622708 W
            Runtime Dynamic = 0.0492674 W

              Integer RF:
                Area = 0.362673 mm^2
                Peak Dynamic = 0.0894084 W
                Subthreshold Leakage = 0.00614175 W
                Subthreshold Leakage with power gating = 0.00246675 W
                Gate Leakage = 0.00038992 W
                Runtime Dynamic = 0.0433992 W

              Floating Point RF:
                Area = 0.208131 mm^2
                Peak Dynamic = 0.0827901 W
                Subthreshold Leakage = 0.00399698 W
                Subthreshold Leakage with power gating = 0.00176968 W
                Gate Leakage = 0.000232788 W
                Runtime Dynamic = 0.00586823 W

          Instruction Scheduler:
            Area = 2.17927 mm^2
            Peak Dynamic = 4.84781 W
            Subthreshold Leakage = 0.114878 W
            Subthreshold Leakage with power gating = 0.0641291 W
            Gate Leakage = 0.00730101 W
            Runtime Dynamic = 0.611977 W

              Instruction Window:
                Area = 1.00996 mm^2
                Peak Dynamic = 2.07911 W
                Subthreshold Leakage = 0.0800117 W
                Subthreshold Leakage with power gating = 0.0455351 W
                Gate Leakage = 0.00529112 W
                Runtime Dynamic = 0.280316 W

              FP Instruction Window:
                Area = 0.328073 mm^2
                Peak Dynamic = 1.20978 W
                Subthreshold Leakage = 0.017004 W
                Subthreshold Leakage with power gating = 0.00962066 W
                Gate Leakage = 0.00115349 W
                Runtime Dynamic = 0.161879 W

              ROB:
                Area = 0.841232 mm^2
                Peak Dynamic = 1.55892 W
                Subthreshold Leakage = 0.0178624 W
                Subthreshold Leakage with power gating = 0.00897339 W
                Gate Leakage = 0.000856399 W
                Runtime Dynamic = 0.169783 W

          Integer ALUs (Count: 6 ):
            Area = 0.47087 mm^2
            Peak Dynamic = 0.0928239 W
            Subthreshold Leakage = 0.40222 W
            Subthreshold Leakage with power gating = 0.150833 W
            Gate Leakage = 0.0265291 W
            Runtime Dynamic = 0.193845 W

          Floating Point Units (FPUs) (Count: 2 ):
            Area = 4.6585 mm^2
            Peak Dynamic = 0.438225 W
            Subthreshold Leakage = 0.994829 W
            Subthreshold Leakage with power gating = 0.373061 W
            Gate Leakage = 0.0656156 W
            Runtime Dynamic = 0.496815 W

          Complex ALUs (Mul/Div) (Count: 1 ):
            Area = 0.235435 mm^2
            Peak Dynamic = 0.109085 W
            Subthreshold Leakage = 0.20111 W
            Subthreshold Leakage with power gating = 0.0754163 W
            Gate Leakage = 0.0132646 W
            Runtime Dynamic = 0.288369 W

          Results Broadcast Bus:
            Area Overhead = 0.0442632 mm^2
            Peak Dynamic = 0.245933 W
            Subthreshold Leakage = 0.0920413 W
            Subthreshold Leakage with power gating = 0.0345155 W
            Gate Leakage = 0.00607074 W
            Runtime Dynamic = 0.440867 W

    L2
    Area = 4.53318 mm^2
    Peak Dynamic = 0.042058 W
    Subthreshold Leakage = 0.834142 W
    Subthreshold Leakage with power gating = 0.401066 W
    Gate Leakage = 0.015464 W
    Runtime Dynamic = 0.0129794 W

*****************************************************************************************
Core:
      Area = 25.243 mm^2
      Peak Dynamic = 16.4718 W
      Subthreshold Leakage = 5.77309 W
      Subthreshold Leakage with power gating = 2.40346 W
      Gate Leakage = 0.343777 W
      Runtime Dynamic = 2.80429 W

      Instruction Fetch Unit:
        Area = 4.10413 mm^2
        Peak Dynamic = 4.10872 W
        Subthreshold Leakage = 0.755383 W
        Subthreshold Leakage with power gating = 0.335447 W
        Gate Leakage = 0.0414628 W
        Runtime Dynamic = 0.193168 W

          Instruction Cache:
            Area = 1.3904 mm^2
            Peak Dynamic = 1.75959 W
            Subthreshold Leakage = 0.189818 W
            Subthreshold Leakage with power gating = 0.10729 W
            Gate Leakage = 0.0123459 W
            Runtime Dynamic = 0.00633749 W

          Branch Target Buffer:
            Area = 0.64954 mm^2
            Peak Dynamic = 0.177867 W
            Subthreshold Leakage = 0.0811682 W
            Subthreshold Leakage with power gating = 0.0435357 W
            Gate Leakage = 0.00272758 W
            Runtime Dynamic = 0.00231943 W

          Branch Predictor:
            Area = 0.138516 mm^2
            Peak Dynamic = 0.0597838 W
            Subthreshold Leakage = 0.0199703 W
            Subthreshold Leakage with power gating = 0.0103282 W
            Gate Leakage = 0.000757657 W
            Runtime Dynamic = 0.00129874 W

              Global Predictor:
                Area = 0.0435221 mm^2
                Peak Dynamic = 0.0168831 W
                Subthreshold Leakage = 0.00759719 W
                Subthreshold Leakage with power gating = 0.0039236 W
                Gate Leakage = 0.000278362 W
                Runtime Dynamic = 0.000236018 W

              Local Predictor:
              L1_Local Predictor:
                Area = 0.0257064 mm^2
                Peak Dynamic = 0.0142575 W
                Subthreshold Leakage = 0.00384344 W
                Subthreshold Leakage with power gating = 0.00198631 W
                Gate Leakage = 0.000154548 W
                Runtime Dynamic = 0.00020399 W

              L2_Local Predictor:
                Area = 0.0151917 mm^2
                Peak Dynamic = 0.00527447 W
                Subthreshold Leakage = 0.00181347 W
                Subthreshold Leakage with power gating = 0.000957045 W
                Gate Leakage = 8.00196e-05 W
                Runtime Dynamic = 7.81026e-05 W

              Chooser:
                Area = 0.0435221 mm^2
                Peak Dynamic = 0.0168831 W
                Subthreshold Leakage = 0.00759719 W
                Subthreshold Leakage with power gating = 0.0039236 W
                Gate Leakage = 0.000278362 W
                Runtime Dynamic = 0.000236018 W

              RAS:
                Area = 0.0105732 mm^2
                Peak Dynamic = 0.0117602 W
                Subthreshold Leakage = 0.000932505 W
                Subthreshold Leakage with power gating = 0.000494733 W
                Gate Leakage = 4.63858e-05 W
                Runtime Dynamic = 0.000622716 W

          Instruction Buffer:
            Area = 0.0226323 mm^2
            Peak Dynamic = 0.606827 W
            Subthreshold Leakage = 0.00151885 W
            Subthreshold Leakage with power gating = 0.000701682 W
            Gate Leakage = 6.83558e-05 W
            Runtime Dynamic = 0.0416728 W

          Instruction Decoder:
            Area = 1.85799 mm^2
            Peak Dynamic = 1.37404 W
            Subthreshold Leakage = 0.442943 W
            Subthreshold Leakage with power gating = 0.166104 W
            Gate Leakage = 0.0222493 W
            Runtime Dynamic = 0.14154 W

      Renaming Unit:
        Area = 0.369768 mm^2
        Peak Dynamic = 4.56169 W
        Subthreshold Leakage = 0.070483 W
        Subthreshold Leakage with power gating = 0.0362779 W
        Gate Leakage = 0.00863632 W
        Runtime Dynamic = 0.378891 W

          Int Front End RAT:
            Area = 0.114751 mm^2
            Peak Dynamic = 0.86945 W
            Subthreshold Leakage = 0.00611897 W
            Subthreshold Leakage with power gating = 0.00348781 W
            Gate Leakage = 0.00038343 W
            Runtime Dynamic = 0.0783106 W

          FP Front End RAT:
            Area = 0.168486 mm^2
            Peak Dynamic = 3.33511 W
            Subthreshold Leakage = 0.0437281 W
            Subthreshold Leakage with power gating = 0.024925 W
            Gate Leakage = 0.00489731 W
            Runtime Dynamic = 0.288837 W

          Free List:
            Area = 0.0414755 mm^2
            Peak Dynamic = 0.0401324 W
            Subthreshold Leakage = 0.000670426 W
            Subthreshold Leakage with power gating = 0.000377987 W
            Gate Leakage = 4.15911e-05 W
            Runtime Dynamic = 0.0117437 W

      Load Store Unit:
        Area = 3.20041 mm^2
        Peak Dynamic = 1.50086 W
        Subthreshold Leakage = 0.32315 W
        Subthreshold Leakage with power gating = 0.176854 W
        Gate Leakage = 0.0235039 W
        Runtime Dynamic = 0.119712 W

          Data Cache:
            Area = 2.20958 mm^2
            Peak Dynamic = 1.44606 W
            Subthreshold Leakage = 0.259202 W
            Subthreshold Leakage with power gating = 0.144298 W
            Gate Leakage = 0.0162912 W
            Runtime Dynamic = 0.0511606 W

          LoadQ:
            Area = 0.0836782 mm^2
            Peak Dynamic = 0.0115567 W
            Subthreshold Leakage = 0.00941961 W
            Subthreshold Leakage with power gating = 0.00536918 W
            Gate Leakage = 0.00059896 W
            Runtime Dynamic = 0.0115568 W

          StoreQ:
            Area = 0.322079 mm^2
            Peak Dynamic = 0.0284969 W
            Subthreshold Leakage = 0.0345621 W
            Subthreshold Leakage with power gating = 0.0197004 W
            Gate Leakage = 0.00329971 W
            Runtime Dynamic = 0.0569943 W

      Memory Management Unit:
        Area = 0.434579 mm^2
        Peak Dynamic = 0.340797 W
        Subthreshold Leakage = 0.0769113 W
        Subthreshold Leakage with power gating = 0.0399462 W
        Gate Leakage = 0.00813591 W
        Runtime Dynamic = 0.0198831 W

          Itlb:
            Area = 0.301552 mm^2
            Peak Dynamic = 0.164814 W
            Subthreshold Leakage = 0.0413758 W
            Subthreshold Leakage with power gating = 0.0235842 W
            Gate Leakage = 0.00393464 W
            Runtime Dynamic = 0.00914984 W

          Dtlb:
            Area = 0.0879726 mm^2
            Peak Dynamic = 0.0101137 W
            Subthreshold Leakage = 0.0155699 W
            Subthreshold Leakage with power gating = 0.00887485 W
            Gate Leakage = 0.00088729 W
            Runtime Dynamic = 0.0107332 W

      Execution Unit:
        Area = 8.2042 mm^2
        Peak Dynamic = 5.91834 W
        Subthreshold Leakage = 1.83518 W
        Subthreshold Leakage with power gating = 0.709678 W
        Gate Leakage = 0.122718 W
        Runtime Dynamic = 2.0799 W

          Register Files:
            Area = 0.570804 mm^2
            Peak Dynamic = 0.17215 W
            Subthreshold Leakage = 0.0101387 W
            Subthreshold Leakage with power gating = 0.00423643 W
            Gate Leakage = 0.000622708 W
            Runtime Dynamic = 0.0492108 W

              Integer RF:
                Area = 0.362673 mm^2
                Peak Dynamic = 0.0893602 W
                Subthreshold Leakage = 0.00614175 W
                Subthreshold Leakage with power gating = 0.00246675 W
                Gate Leakage = 0.00038992 W
                Runtime Dynamic = 0.0433493 W

              Floating Point RF:
                Area = 0.208131 mm^2
                Peak Dynamic = 0.0827901 W
                Subthreshold Leakage = 0.00399698 W
                Subthreshold Leakage with power gating = 0.00176968 W
                Gate Leakage = 0.000232788 W
                Runtime Dynamic = 0.00586149 W

          Instruction Scheduler:
            Area = 2.17927 mm^2
            Peak Dynamic = 4.84781 W
            Subthreshold Leakage = 0.114878 W
            Subthreshold Leakage with power gating = 0.0641291 W
            Gate Leakage = 0.00730101 W
            Runtime Dynamic = 0.611276 W

              Instruction Window:
                Area = 1.00996 mm^2
                Peak Dynamic = 2.07911 W
                Subthreshold Leakage = 0.0800117 W
                Subthreshold Leakage with power gating = 0.0455351 W
                Gate Leakage = 0.00529112 W
                Runtime Dynamic = 0.279994 W

              FP Instruction Window:
                Area = 0.328073 mm^2
                Peak Dynamic = 1.20978 W
                Subthreshold Leakage = 0.017004 W
                Subthreshold Leakage with power gating = 0.00962066 W
                Gate Leakage = 0.00115349 W
                Runtime Dynamic = 0.161693 W

              ROB:
                Area = 0.841232 mm^2
                Peak Dynamic = 1.55892 W
                Subthreshold Leakage = 0.0178624 W
                Subthreshold Leakage with power gating = 0.00897339 W
                Gate Leakage = 0.000856399 W
                Runtime Dynamic = 0.16959 W

          Integer ALUs (Count: 6 ):
            Area = 0.47087 mm^2
            Peak Dynamic = 0.0926401 W
            Subthreshold Leakage = 0.40222 W
            Subthreshold Leakage with power gating = 0.150833 W
            Gate Leakage = 0.0265291 W
            Runtime Dynamic = 0.193685 W

          Floating Point Units (FPUs) (Count: 2 ):
            Area = 4.6585 mm^2
            Peak Dynamic = 0.438225 W
            Subthreshold Leakage = 0.994829 W
            Subthreshold Leakage with power gating = 0.373061 W
            Gate Leakage = 0.0656156 W
            Runtime Dynamic = 0.496815 W

          Complex ALUs (Mul/Div) (Count: 1 ):
            Area = 0.235435 mm^2
            Peak Dynamic = 0.109086 W
            Subthreshold Leakage = 0.20111 W
            Subthreshold Leakage with power gating = 0.0754163 W
            Gate Leakage = 0.0132646 W
            Runtime Dynamic = 0.288369 W

          Results Broadcast Bus:
            Area Overhead = 0.0442632 mm^2
            Peak Dynamic = 0.245816 W
            Subthreshold Leakage = 0.0920413 W
            Subthreshold Leakage with power gating = 0.0345155 W
            Gate Leakage = 0.00607074 W
            Runtime Dynamic = 0.440547 W

    L2
    Area = 4.53318 mm^2
    Peak Dynamic = 0.0413455 W
    Subthreshold Leakage = 0.834142 W
    Subthreshold Leakage with power gating = 0.401066 W
    Gate Leakage = 0.015464 W
    Runtime Dynamic = 0.012727 W

*****************************************************************************************
Core:
      Area = 25.243 mm^2
      Peak Dynamic = 16.4784 W
      Subthreshold Leakage = 5.77309 W
      Subthreshold Leakage with power gating = 2.40346 W
      Gate Leakage = 0.343777 W
      Runtime Dynamic = 2.80806 W

      Instruction Fetch Unit:
        Area = 4.10413 mm^2
        Peak Dynamic = 4.11221 W
        Subthreshold Leakage = 0.755383 W
        Subthreshold Leakage with power gating = 0.335447 W
        Gate Leakage = 0.0414628 W
        Runtime Dynamic = 0.193585 W

          Instruction Cache:
            Area = 1.3904 mm^2
            Peak Dynamic = 1.76283 W
            Subthreshold Leakage = 0.189818 W
            Subthreshold Leakage with power gating = 0.10729 W
            Gate Leakage = 0.0123459 W
            Runtime Dynamic = 0.0063919 W

          Branch Target Buffer:
            Area = 0.64954 mm^2
            Peak Dynamic = 0.177867 W
            Subthreshold Leakage = 0.0811682 W
            Subthreshold Leakage with power gating = 0.0435357 W
            Gate Leakage = 0.00272758 W
            Runtime Dynamic = 0.00233739 W

          Branch Predictor:
            Area = 0.138516 mm^2
            Peak Dynamic = 0.0597838 W
            Subthreshold Leakage = 0.0199703 W
            Subthreshold Leakage with power gating = 0.0103282 W
            Gate Leakage = 0.000757657 W
            Runtime Dynamic = 0.00130514 W

              Global Predictor:
                Area = 0.0435221 mm^2
                Peak Dynamic = 0.0168831 W
                Subthreshold Leakage = 0.00759719 W
                Subthreshold Leakage with power gating = 0.0039236 W
                Gate Leakage = 0.000278362 W
                Runtime Dynamic = 0.000237851 W

              Local Predictor:
              L1_Local Predictor:
                Area = 0.0257064 mm^2
                Peak Dynamic = 0.0142575 W
                Subthreshold Leakage = 0.00384344 W
                Subthreshold Leakage with power gating = 0.00198631 W
                Gate Leakage = 0.000154548 W
                Runtime Dynamic = 0.000205575 W

              L2_Local Predictor:
                Area = 0.0151917 mm^2
                Peak Dynamic = 0.00527447 W
                Subthreshold Leakage = 0.00181347 W
                Subthreshold Leakage with power gating = 0.000957045 W
                Gate Leakage = 8.00196e-05 W
                Runtime Dynamic = 7.87104e-05 W

              Chooser:
                Area = 0.0435221 mm^2
                Peak Dynamic = 0.0168831 W
                Subthreshold Leakage = 0.00759719 W
                Subthreshold Leakage with power gating = 0.0039236 W
                Gate Leakage = 0.000278362 W
                Runtime Dynamic = 0.000237851 W

              RAS:
                Area = 0.0105732 mm^2
                Peak Dynamic = 0.0117602 W
                Subthreshold Leakage = 0.000932505 W
                Subthreshold Leakage with power gating = 0.000494733 W
                Gate Leakage = 4.63858e-05 W
                Runtime Dynamic = 0.000623865 W

          Instruction Buffer:
            Area = 0.0226323 mm^2
            Peak Dynamic = 0.606827 W
            Subthreshold Leakage = 0.00151885 W
            Subthreshold Leakage with power gating = 0.000701682 W
            Gate Leakage = 6.83558e-05 W
            Runtime Dynamic = 0.0417497 W

          Instruction Decoder:
            Area = 1.85799 mm^2
            Peak Dynamic = 1.37404 W
            Subthreshold Leakage = 0.442943 W
            Subthreshold Leakage with power gating = 0.166104 W
            Gate Leakage = 0.0222493 W
            Runtime Dynamic = 0.141801 W

      Renaming Unit:
        Area = 0.369768 mm^2
        Peak Dynamic = 4.56169 W
        Subthreshold Leakage = 0.070483 W
        Subthreshold Leakage with power gating = 0.0362779 W
        Gate Leakage = 0.00863632 W
        Runtime Dynamic = 0.379066 W

          Int Front End RAT:
            Area = 0.114751 mm^2
            Peak Dynamic = 0.86945 W
            Subthreshold Leakage = 0.00611897 W
            Subthreshold Leakage with power gating = 0.00348781 W
            Gate Leakage = 0.00038343 W
            Runtime Dynamic = 0.0784698 W

          FP Front End RAT:
            Area = 0.168486 mm^2
            Peak Dynamic = 3.33511 W
            Subthreshold Leakage = 0.0437281 W
            Subthreshold Leakage with power gating = 0.024925 W
            Gate Leakage = 0.00489731 W
            Runtime Dynamic = 0.288838 W

          Free List:
            Area = 0.0414755 mm^2
            Peak Dynamic = 0.0401324 W
            Subthreshold Leakage = 0.000670426 W
            Subthreshold Leakage with power gating = 0.000377987 W
            Gate Leakage = 4.15911e-05 W
            Runtime Dynamic = 0.011759 W

      Load Store Unit:
        Area = 3.20041 mm^2
        Peak Dynamic = 1.50309 W
        Subthreshold Leakage = 0.32315 W
        Subthreshold Leakage with power gating = 0.176854 W
        Gate Leakage = 0.0235039 W
        Runtime Dynamic = 0.120548 W

          Data Cache:
            Area = 2.20958 mm^2
            Peak Dynamic = 1.44783 W
            Subthreshold Leakage = 0.259202 W
            Subthreshold Leakage with power gating = 0.144298 W
            Gate Leakage = 0.0162912 W
            Runtime Dynamic = 0.0514168 W

          LoadQ:
            Area = 0.0836782 mm^2
            Peak Dynamic = 0.0116546 W
            Subthreshold Leakage = 0.00941961 W
            Subthreshold Leakage with power gating = 0.00536918 W
            Gate Leakage = 0.00059896 W
            Runtime Dynamic = 0.0116547 W

          StoreQ:
            Area = 0.322079 mm^2
            Peak Dynamic = 0.0287384 W
            Subthreshold Leakage = 0.0345621 W
            Subthreshold Leakage with power gating = 0.0197004 W
            Gate Leakage = 0.00329971 W
            Runtime Dynamic = 0.057477 W

      Memory Management Unit:
        Area = 0.434579 mm^2
        Peak Dynamic = 0.341249 W
        Subthreshold Leakage = 0.0769113 W
        Subthreshold Leakage with power gating = 0.0399462 W
        Gate Leakage = 0.00813591 W
        Runtime Dynamic = 0.0200458 W

          Itlb:
            Area = 0.301552 mm^2
            Peak Dynamic = 0.165118 W
            Subthreshold Leakage = 0.0413758 W
            Subthreshold Leakage with power gating = 0.0235842 W
            Gate Leakage = 0.00393464 W
            Runtime Dynamic = 0.00922819 W

          Dtlb:
            Area = 0.0879726 mm^2
            Peak Dynamic = 0.0101993 W
            Subthreshold Leakage = 0.0155699 W
            Subthreshold Leakage with power gating = 0.00887485 W
            Gate Leakage = 0.00088729 W
            Runtime Dynamic = 0.0108175 W

      Execution Unit:
        Area = 8.2042 mm^2
        Peak Dynamic = 5.91895 W
        Subthreshold Leakage = 1.83518 W
        Subthreshold Leakage with power gating = 0.709678 W
        Gate Leakage = 0.122718 W
        Runtime Dynamic = 2.08209 W

          Register Files:
            Area = 0.570804 mm^2
            Peak Dynamic = 0.172229 W
            Subthreshold Leakage = 0.0101387 W
            Subthreshold Leakage with power gating = 0.00423643 W
            Gate Leakage = 0.000622708 W
            Runtime Dynamic = 0.0493016 W

              Integer RF:
                Area = 0.362673 mm^2
                Peak Dynamic = 0.0894386 W
                Subthreshold Leakage = 0.00614175 W
                Subthreshold Leakage with power gating = 0.00246675 W
                Gate Leakage = 0.00038992 W
                Runtime Dynamic = 0.0434293 W

              Floating Point RF:
                Area = 0.208131 mm^2
                Peak Dynamic = 0.0827906 W
                Subthreshold Leakage = 0.00399698 W
                Subthreshold Leakage with power gating = 0.00176968 W
                Gate Leakage = 0.000232788 W
                Runtime Dynamic = 0.00587231 W

          Instruction Scheduler:
            Area = 2.17927 mm^2
            Peak Dynamic = 4.84781 W
            Subthreshold Leakage = 0.114878 W
            Subthreshold Leakage with power gating = 0.0641291 W
            Gate Leakage = 0.00730101 W
            Runtime Dynamic = 0.61245 W

              Instruction Window:
                Area = 1.00996 mm^2
                Peak Dynamic = 2.07911 W
                Subthreshold Leakage = 0.0800117 W
                Subthreshold Leakage with power gating = 0.0455351 W
                Gate Leakage = 0.00529112 W
                Runtime Dynamic = 0.28051 W

              FP Instruction Window:
                Area = 0.328073 mm^2
                Peak Dynamic = 1.20978 W
                Subthreshold Leakage = 0.017004 W
                Subthreshold Leakage with power gating = 0.00962066 W
                Gate Leakage = 0.00115349 W
                Runtime Dynamic = 0.161991 W

              ROB:
                Area = 0.841232 mm^2
                Peak Dynamic = 1.55892 W
                Subthreshold Leakage = 0.0178624 W
                Subthreshold Leakage with power gating = 0.00897339 W
                Gate Leakage = 0.000856399 W
                Runtime Dynamic = 0.169949 W

          Integer ALUs (Count: 6 ):
            Area = 0.47087 mm^2
            Peak Dynamic = 0.0929357 W
            Subthreshold Leakage = 0.40222 W
            Subthreshold Leakage with power gating = 0.150833 W
            Gate Leakage = 0.0265291 W
            Runtime Dynamic = 0.193989 W

          Floating Point Units (FPUs) (Count: 2 ):
            Area = 4.6585 mm^2
            Peak Dynamic = 0.438228 W
            Subthreshold Leakage = 0.994829 W
            Subthreshold Leakage with power gating = 0.373061 W
            Gate Leakage = 0.0656156 W
            Runtime Dynamic = 0.496816 W

          Complex ALUs (Mul/Div) (Count: 1 ):
            Area = 0.235435 mm^2
            Peak Dynamic = 0.109086 W
            Subthreshold Leakage = 0.20111 W
            Subthreshold Leakage with power gating = 0.0754163 W
            Gate Leakage = 0.0132646 W
            Runtime Dynamic = 0.28837 W

          Results Broadcast Bus:
            Area Overhead = 0.0442632 mm^2
            Peak Dynamic = 0.246006 W
            Subthreshold Leakage = 0.0920413 W
            Subthreshold Leakage with power gating = 0.0345155 W
            Gate Leakage = 0.00607074 W
            Runtime Dynamic = 0.441159 W

    L2
    Area = 4.53318 mm^2
    Peak Dynamic = 0.0412539 W
    Subthreshold Leakage = 0.834142 W
    Subthreshold Leakage with power gating = 0.401066 W
    Gate Leakage = 0.015464 W
    Runtime Dynamic = 0.0127262 W

*****************************************************************************************
      L3
      Area = 61.9075 mm^2
      Peak Dynamic = 0.0493583 W
      Subthreshold Leakage = 6.80085 W
      Subthreshold Leakage with power gating = 3.32364 W
      Gate Leakage = 0.0484137 W
      Runtime Dynamic = 0.0388285 W

*****************************************************************************************
BUSES
      Area = 1.231 mm^2
      Peak Dynamic = 0 W
      Subthreshold Leakage = 0.0639116 W
      Subthreshold Leakage with power gating = 0.0239668 W
      Gate Leakage = 0.00612889 W
      Runtime Dynamic = 0 W

      Bus: 
        Area = 1.231 mm^2
        Peak Dynamic = 0 W
        Subthreshold Leakage = 0.0639116 W
        Subthreshold Leakage with power gating = 0.0239668 W
        Gate Leakage = 0.00612889 W
        Runtime Dynamic = 0 W

*****************************************************************************************
