McPAT (version 1.0 of Aug, 2013) is computing the target processor...
 
DB write error: -30977
DB write error: -30977
DB write error: -30977
DB write error: -30977
DB write error: -30977
DB write error: -30977
DB write error: -30977
DB write error: -30977
DB write error: -30977
DB write error: -30977
DB write error: -30977
DB write error: -30977
DB write error: -30977
DB write error: -30977
DB write error: -30977
DB write error: -30977
DB write error: -30977
DB write error: -30977
DB write error: -30977
DB write error: -30977
DB write error: -30977
DB write error: -30977
DB write error: -30977
DB write error: -30977
DB write error: -30977
DB write error: -30977
DB write error: -30977
DB write error: -30977
DB write error: -30977
DB write error: -30977
DB write error: -30977
DB write error: -30977
DB write error: -30977
DB write error: -30977
DB write error: -30977
DB write error: -30977
DB write error: -30977
DB write error: -30977
DB write error: -30977
DB write error: -30977
DB write error: -30977
DB write error: -30977
DB write error: -30977
DB write error: -30977
DB write error: -30977
DB write error: -30977
DB write error: -30977
DB write error: -30977
DB write error: -30977
DB write error: -30977
DB write error: -30977
DB write error: -30977
DB write error: -30977
DB write error: -30977
DB write error: -30977
DB write error: -30977
DB write error: -30977
DB write error: -30977
DB write error: -30977
DB write error: -30977
DB write error: -30977
DB write error: -30977
DB write error: -30977
DB write error: -30977
DB write error: -30977
DB write error: -30977
DB write error: -30977
DB write error: -30977
DB write error: -30977
DB write error: -30977
DB write error: -30977
DB write error: -30977
DB write error: -30977
DB write error: -30977
DB write error: -30977
DB write error: -30977
DB write error: -30977
DB write error: -30977
DB write error: -30977
DB write error: -30977
DB write error: -30977
DB write error: -30977
DB write error: -30977
DB write error: -30977
DB write error: -30977
DB write error: -30977
DB write error: -30977
DB write error: -30977
DB write error: -30977
DB write error: -30977
DB write error: -30977
DB write error: -30977
DB write error: -30977
DB write error: -30977
DB write error: -30977
DB write error: -30977
DB write error: -30977
DB write error: -30977
DB write error: -30977
DB write error: -30977
DB write error: -30977
DB write error: -30977
DB write error: -30977
DB write error: -30977
DB write error: -30977
DB write error: -30977
DB write error: -30977
DB write error: -30977
DB write error: -30977
DB write error: -30977
DB write error: -30977
DB write error: -30977
DB write error: -30977
DB write error: -30977
DB write error: -30977
DB write error: -30977
DB write error: -30977
DB write error: -30977
DB write error: -30977
DB write error: -30977
DB write error: -30977
DB write error: -30977
DB write error: -30977
DB write error: -30977
DB write error: -30977
DB write error: -30977
DB write error: -30977
DB write error: -30977
DB write error: -30977
DB write error: -30977
DB write error: -30977
DB write error: -30977
DB write error: -30977
DB write error: -30977
DB write error: -30977
DB write error: -30977
DB write error: -30977
DB write error: -30977
DB write error: -30977
DB write error: -30977
DB write error: -30977
DB write error: -30977
DB write error: -30977
DB write error: -30977
DB write error: -30977
DB write error: -30977
DB write error: -30977
DB write error: -30977
DB write error: -30977
DB write error: -30977
DB write error: -30977
DB write error: -30977
DB write error: -30977
DB write error: -30977
DB write error: -30977
DB write error: -30977
DB write error: -30977
DB write error: -30977
DB write error: -30977
DB write error: -30977
DB write error: -30977
DB write error: -30977
DB write error: -30977
DB write error: -30977
DB write error: -30977
DB write error: -30977
DB write error: -30977
DB write error: -30977
DB write error: -30977
DB write error: -30977
DB write error: -30977
DB write error: -30977
DB write error: -30977
DB write error: -30977
DB write error: -30977
DB write error: -30977
DB write error: -30977
DB write error: -30977
DB write error: -30977
DB write error: -30977
DB write error: -30977
DB write error: -30977
DB write error: -30977
DB write error: -30977
DB write error: -30977
DB write error: -30977
DB write error: -30977
DB write error: -30977
DB write error: -30977
DB write error: -30977
DB write error: -30977
DB write error: -30977
DB write error: -30977
DB write error: -30977
DB write error: -30977
DB write error: -30977
DB write error: -30977
DB write error: -30977
DB write error: -30977
DB write error: -30977
DB write error: -30977
DB write error: -30977
DB write error: -30977
DB write error: -30977
DB write error: -30977
DB write error: -30977
DB write error: -30977
DB write error: -30977
DB write error: -30977
DB write error: -30977
DB write error: -30977
DB write error: -30977
DB write error: -30977
DB write error: -30977
DB write error: -30977
DB write error: -30977
DB write error: -30977
DB write error: -30977
DB write error: -30977
DB write error: -30977
DB write error: -30977
DB write error: -30977
DB write error: -30977
DB write error: -30977
DB write error: -30977
DB write error: -30977
DB write error: -30977
DB write error: -30977
DB write error: -30977
DB write error: -30977
DB write error: -30977
DB write error: -30977
DB write error: -30977
DB write error: -30977
DB write error: -30977
DB write error: -30977
DB write error: -30977
DB write error: -30977
DB write error: -30977
DB write error: -30977
DB write error: -30977
DB write error: -30977
DB write error: -30977
DB write error: -30977
DB write error: -30977
DB write error: -30977
DB write error: -30977
DB write error: -30977
DB write error: -30977
DB write error: -30977
DB write error: -30977
DB write error: -30977
DB write error: -30977
DB write error: -30977
DB write error: -30977
DB write error: -30977
DB write error: -30977
DB write error: -30977
DB write error: -30977
DB write error: -30977
DB write error: -30977
DB write error: -30977
DB write error: -30977
DB write error: -30977
DB write error: -30977
DB write error: -30977
DB write error: -30977
DB write error: -30977
DB write error: -30977
DB write error: -30977
DB write error: -30977
DB write error: -30977
DB write error: -30977
DB write error: -30977
DB write error: -30977
DB write error: -30977
DB write error: -30977
DB write error: -30977
DB write error: -30977
DB write error: -30977
DB write error: -30977
DB write error: -30977
DB write error: -30977
DB write error: -30977
DB write error: -30977
DB write error: -30977
DB write error: -30977
DB write error: -30977
DB write error: -30977
DB write error: -30977
DB write error: -30977
DB write error: -30977
DB write error: -30977
DB write error: -30977
DB write error: -30977
DB write error: -30977
DB write error: -30977
DB write error: -30977
DB write error: -30977
DB write error: -30977
DB write error: -30977
DB write error: -30977
DB write error: -30977
DB write error: -30977
DB write error: -30977
DB write error: -30977
DB write error: -30977
DB write error: -30977
DB write error: -30977
DB write error: -30977
DB write error: -30977
DB write error: -30977
DB write error: -30977
DB write error: -30977
DB write error: -30977
DB write error: -30977
DB write error: -30977
DB write error: -30977
DB write error: -30977
DB write error: -30977
DB write error: -30977
DB write error: -30977
DB write error: -30977
DB write error: -30977
DB write error: -30977
DB write error: -30977
DB write error: -30977
DB write error: -30977
DB write error: -30977
DB write error: -30977
DB write error: -30977
DB write error: -30977
DB write error: -30977
DB write error: -30977
DB write error: -30977
DB write error: -30977
DB write error: -30977
DB write error: -30977
DB write error: -30977
DB write error: -30977
DB write error: -30977
DB write error: -30977
DB write error: -30977
DB write error: -30977
DB write error: -30977
DB write error: -30977
DB write error: -30977
DB write error: -30977
DB write error: -30977
DB write error: -30977
DB write error: -30977
DB write error: -30977
DB write error: -30977
DB write error: -30977
DB write error: -30977
DB write error: -30977
DB write error: -30977
DB write error: -30977
DB write error: -30977
DB write error: -30977
DB write error: -30977
DB write error: -30977
DB write error: -30977
DB write error: -30977
DB write error: -30977
DB write error: -30977
DB write error: -30977
DB write error: -30977
DB write error: -30977
DB write error: -30977
DB write error: -30977
DB write error: -30977
DB write error: -30977
DB write error: -30977
DB write error: -30977
DB write error: -30977
DB write error: -30977
DB write error: -30977
DB write error: -30977
DB write error: -30977
DB write error: -30977
DB write error: -30977
DB write error: -30977
DB write error: -30977
DB write error: -30977
DB write error: -30977
DB write error: -30977
DB write error: -30977
DB write error: -30977
DB write error: -30977
DB write error: -30977
DB write error: -30977
DB write error: -30977
DB write error: -30977
DB write error: -30977
DB write error: -30977
DB write error: -30977
DB write error: -30977
DB write error: -30977
DB write error: -30977
DB write error: -30977
DB write error: -30977
DB write error: -30977
DB write error: -30977
DB write error: -30977
DB write error: -30977
DB write error: -30977
DB write error: -30977
DB write error: -30977
DB write error: -30977
DB write error: -30977
DB write error: -30977
DB write error: -30977
DB write error: -30977
DB write error: -30977
DB write error: -30977
DB write error: -30977
DB write error: -30977
DB write error: -30977
DB write error: -30977
DB write error: -30977
DB write error: -30977
DB write error: -30977
DB write error: -30977
DB write error: -30977
DB write error: -30977
DB write error: -30977
DB write error: -30977

McPAT (version 1.0 of Aug, 2013) results  (current print level is 5)
*****************************************************************************************
  Technology 45 nm
  Using Long Channel Devices When Appropriate
  Interconnect metal projection= aggressive interconnect technology projection
  Core clock Rate(MHz) 2660

*****************************************************************************************
Processor: 
  Area = 194.447 mm^2
  Peak Power = 112.921 W
  Total Leakage = 34.6056 W
  Peak Dynamic = 78.3157 W
  Subthreshold Leakage = 32.9472 W
  Subthreshold Leakage with power gating = 14.9325 W
  Gate Leakage = 1.6584 W
  Runtime Dynamic = 16.3438 W

  Total Cores: 4 cores 
  Device Type= ITRS high performance device type
    Area = 131.199 mm^2
    Peak Dynamic = 78.2539 W
    Subthreshold Leakage = 26.0768 W
    Subthreshold Leakage with power gating = 11.3149 W
    Gate Leakage = 1.60332 W
    Runtime Dynamic = 16.3086 W

  Total L3s: 
  Device Type= ITRS high performance device type
    Area = 61.9075 mm^2
    Peak Dynamic = 0.0617632 W
    Subthreshold Leakage = 6.80085 W
    Subthreshold Leakage with power gating = 3.32364 W
    Gate Leakage = 0.0484137 W
    Runtime Dynamic = 0.0352202 W

  Total NoCs (Network/Bus): 
  Device Type= ITRS high performance device type
    Area = 1.34036 mm^2
    Peak Dynamic = 0 W
    Subthreshold Leakage = 0.0695897 W
    Subthreshold Leakage with power gating = 0.0260961 W
    Gate Leakage = 0.00667341 W
    Runtime Dynamic = 0 W

*****************************************************************************************
Core:
      Area = 55.4703 mm^2
      Peak Dynamic = 20.2378 W
      Subthreshold Leakage = 8.7575 W
      Subthreshold Leakage with power gating = 4.10457 W
      Gate Leakage = 0.571986 W
      Runtime Dynamic = 4.04039 W

      Instruction Fetch Unit:
        Area = 4.10413 mm^2
        Peak Dynamic = 5.34336 W
        Subthreshold Leakage = 0.755383 W
        Subthreshold Leakage with power gating = 0.335447 W
        Gate Leakage = 0.0414628 W
        Runtime Dynamic = 0.350354 W

          Instruction Cache:
            Area = 1.3904 mm^2
            Peak Dynamic = 2.90892 W
            Subthreshold Leakage = 0.189818 W
            Subthreshold Leakage with power gating = 0.10729 W
            Gate Leakage = 0.0123459 W
            Runtime Dynamic = 0.0253064 W

          Branch Target Buffer:
            Area = 0.64954 mm^2
            Peak Dynamic = 0.177867 W
            Subthreshold Leakage = 0.0811682 W
            Subthreshold Leakage with power gating = 0.0435357 W
            Gate Leakage = 0.00272758 W
            Runtime Dynamic = 0.0162137 W

          Branch Predictor:
            Area = 0.138516 mm^2
            Peak Dynamic = 0.0597838 W
            Subthreshold Leakage = 0.0199703 W
            Subthreshold Leakage with power gating = 0.0103282 W
            Gate Leakage = 0.000757657 W
            Runtime Dynamic = 0.00595106 W

              Global Predictor:
                Area = 0.0435221 mm^2
                Peak Dynamic = 0.0168831 W
                Subthreshold Leakage = 0.00759719 W
                Subthreshold Leakage with power gating = 0.0039236 W
                Gate Leakage = 0.000278362 W
                Runtime Dynamic = 0.00171226 W

              Local Predictor:
              L1_Local Predictor:
                Area = 0.0257064 mm^2
                Peak Dynamic = 0.0142575 W
                Subthreshold Leakage = 0.00384344 W
                Subthreshold Leakage with power gating = 0.00198631 W
                Gate Leakage = 0.000154548 W
                Runtime Dynamic = 0.00149707 W

              L2_Local Predictor:
                Area = 0.0151917 mm^2
                Peak Dynamic = 0.00527447 W
                Subthreshold Leakage = 0.00181347 W
                Subthreshold Leakage with power gating = 0.000957045 W
                Gate Leakage = 8.00196e-05 W
                Runtime Dynamic = 0.000582653 W

              Chooser:
                Area = 0.0435221 mm^2
                Peak Dynamic = 0.0168831 W
                Subthreshold Leakage = 0.00759719 W
                Subthreshold Leakage with power gating = 0.0039236 W
                Gate Leakage = 0.000278362 W
                Runtime Dynamic = 0.00171226 W

              RAS:
                Area = 0.0105732 mm^2
                Peak Dynamic = 0.0117602 W
                Subthreshold Leakage = 0.000932505 W
                Subthreshold Leakage with power gating = 0.000494733 W
                Gate Leakage = 4.63858e-05 W
                Runtime Dynamic = 0.00102946 W

          Instruction Buffer:
            Area = 0.0226323 mm^2
            Peak Dynamic = 0.606827 W
            Subthreshold Leakage = 0.00151885 W
            Subthreshold Leakage with power gating = 0.000701682 W
            Gate Leakage = 6.83558e-05 W
            Runtime Dynamic = 0.0688927 W

          Instruction Decoder:
            Area = 1.85799 mm^2
            Peak Dynamic = 1.37404 W
            Subthreshold Leakage = 0.442943 W
            Subthreshold Leakage with power gating = 0.166104 W
            Gate Leakage = 0.0222493 W
            Runtime Dynamic = 0.233991 W

      Renaming Unit:
        Area = 0.369768 mm^2
        Peak Dynamic = 4.56169 W
        Subthreshold Leakage = 0.070483 W
        Subthreshold Leakage with power gating = 0.0362779 W
        Gate Leakage = 0.00863632 W
        Runtime Dynamic = 0.343348 W

          Int Front End RAT:
            Area = 0.114751 mm^2
            Peak Dynamic = 0.86945 W
            Subthreshold Leakage = 0.00611897 W
            Subthreshold Leakage with power gating = 0.00348781 W
            Gate Leakage = 0.00038343 W
            Runtime Dynamic = 0.135608 W

          FP Front End RAT:
            Area = 0.168486 mm^2
            Peak Dynamic = 3.33511 W
            Subthreshold Leakage = 0.0437281 W
            Subthreshold Leakage with power gating = 0.024925 W
            Gate Leakage = 0.00489731 W
            Runtime Dynamic = 0.191764 W

          Free List:
            Area = 0.0414755 mm^2
            Peak Dynamic = 0.0401324 W
            Subthreshold Leakage = 0.000670426 W
            Subthreshold Leakage with power gating = 0.000377987 W
            Gate Leakage = 4.15911e-05 W
            Runtime Dynamic = 0.0159762 W

      Load Store Unit:
        Area = 3.20041 mm^2
        Peak Dynamic = 2.80616 W
        Subthreshold Leakage = 0.32315 W
        Subthreshold Leakage with power gating = 0.176854 W
        Gate Leakage = 0.0235039 W
        Runtime Dynamic = 0.566114 W

          Data Cache:
            Area = 2.20958 mm^2
            Peak Dynamic = 2.48017 W
            Subthreshold Leakage = 0.259202 W
            Subthreshold Leakage with power gating = 0.144298 W
            Gate Leakage = 0.0162912 W
            Runtime Dynamic = 0.158288 W

          LoadQ:
            Area = 0.0836782 mm^2
            Peak Dynamic = 0.068754 W
            Subthreshold Leakage = 0.00941961 W
            Subthreshold Leakage with power gating = 0.00536918 W
            Gate Leakage = 0.00059896 W
            Runtime Dynamic = 0.068754 W

          StoreQ:
            Area = 0.322079 mm^2
            Peak Dynamic = 0.169536 W
            Subthreshold Leakage = 0.0345621 W
            Subthreshold Leakage with power gating = 0.0197004 W
            Gate Leakage = 0.00329971 W
            Runtime Dynamic = 0.339071 W

      Memory Management Unit:
        Area = 0.434579 mm^2
        Peak Dynamic = 0.534986 W
        Subthreshold Leakage = 0.0769113 W
        Subthreshold Leakage with power gating = 0.0399462 W
        Gate Leakage = 0.00813591 W
        Runtime Dynamic = 0.10227 W

          Itlb:
            Area = 0.301552 mm^2
            Peak Dynamic = 0.272467 W
            Subthreshold Leakage = 0.0413758 W
            Subthreshold Leakage with power gating = 0.0235842 W
            Gate Leakage = 0.00393464 W
            Runtime Dynamic = 0.0397053 W

          Dtlb:
            Area = 0.0879726 mm^2
            Peak Dynamic = 0.0601687 W
            Subthreshold Leakage = 0.0155699 W
            Subthreshold Leakage with power gating = 0.00887485 W
            Gate Leakage = 0.00088729 W
            Runtime Dynamic = 0.0625642 W

      Execution Unit:
        Area = 8.2042 mm^2
        Peak Dynamic = 5.78977 W
        Subthreshold Leakage = 1.83518 W
        Subthreshold Leakage with power gating = 0.709678 W
        Gate Leakage = 0.122718 W
        Runtime Dynamic = 2.62856 W

          Register Files:
            Area = 0.570804 mm^2
            Peak Dynamic = 0.139739 W
            Subthreshold Leakage = 0.0101387 W
            Subthreshold Leakage with power gating = 0.00423643 W
            Gate Leakage = 0.000622708 W
            Runtime Dynamic = 0.0813544 W

              Integer RF:
                Area = 0.362673 mm^2
                Peak Dynamic = 0.0847731 W
                Subthreshold Leakage = 0.00614175 W
                Subthreshold Leakage with power gating = 0.00246675 W
                Gate Leakage = 0.00038992 W
                Runtime Dynamic = 0.0716643 W

              Floating Point RF:
                Area = 0.208131 mm^2
                Peak Dynamic = 0.0549661 W
                Subthreshold Leakage = 0.00399698 W
                Subthreshold Leakage with power gating = 0.00176968 W
                Gate Leakage = 0.000232788 W
                Runtime Dynamic = 0.00969011 W

          Instruction Scheduler:
            Area = 2.17927 mm^2
            Peak Dynamic = 4.84781 W
            Subthreshold Leakage = 0.114878 W
            Subthreshold Leakage with power gating = 0.0641291 W
            Gate Leakage = 0.00730101 W
            Runtime Dynamic = 1.02267 W

              Instruction Window:
                Area = 1.00996 mm^2
                Peak Dynamic = 2.07911 W
                Subthreshold Leakage = 0.0800117 W
                Subthreshold Leakage with power gating = 0.0455351 W
                Gate Leakage = 0.00529112 W
                Runtime Dynamic = 0.46288 W

              FP Instruction Window:
                Area = 0.328073 mm^2
                Peak Dynamic = 1.20978 W
                Subthreshold Leakage = 0.017004 W
                Subthreshold Leakage with power gating = 0.00962066 W
                Gate Leakage = 0.00115349 W
                Runtime Dynamic = 0.267308 W

              ROB:
                Area = 0.841232 mm^2
                Peak Dynamic = 1.55892 W
                Subthreshold Leakage = 0.0178624 W
                Subthreshold Leakage with power gating = 0.00897339 W
                Gate Leakage = 0.000856399 W
                Runtime Dynamic = 0.292483 W

          Integer ALUs (Count: 6 ):
            Area = 0.47087 mm^2
            Peak Dynamic = 0.219616 W
            Subthreshold Leakage = 0.40222 W
            Subthreshold Leakage with power gating = 0.150833 W
            Gate Leakage = 0.0265291 W
            Runtime Dynamic = 0.303289 W

          Floating Point Units (FPUs) (Count: 2 ):
            Area = 4.6585 mm^2
            Peak Dynamic = 0.290947 W
            Subthreshold Leakage = 0.994829 W
            Subthreshold Leakage with power gating = 0.373061 W
            Gate Leakage = 0.0656156 W
            Runtime Dynamic = 0.432025 W

          Complex ALUs (Mul/Div) (Count: 1 ):
            Area = 0.235435 mm^2
            Peak Dynamic = 0.0446687 W
            Subthreshold Leakage = 0.20111 W
            Subthreshold Leakage with power gating = 0.0754163 W
            Gate Leakage = 0.0132646 W
            Runtime Dynamic = 0.237774 W

          Results Broadcast Bus:
            Area Overhead = 0.0442632 mm^2
            Peak Dynamic = 0.217084 W
            Subthreshold Leakage = 0.0920413 W
            Subthreshold Leakage with power gating = 0.0345155 W
            Gate Leakage = 0.00607074 W
            Runtime Dynamic = 0.551452 W

    L2
    Area = 34.7605 mm^2
    Peak Dynamic = 1.2018 W
    Subthreshold Leakage = 3.81854 W
    Subthreshold Leakage with power gating = 2.10217 W
    Gate Leakage = 0.243673 W
    Runtime Dynamic = 0.0497436 W

*****************************************************************************************
Core:
      Area = 25.243 mm^2
      Peak Dynamic = 19.2781 W
      Subthreshold Leakage = 5.77309 W
      Subthreshold Leakage with power gating = 2.40346 W
      Gate Leakage = 0.343777 W
      Runtime Dynamic = 4.05475 W

      Instruction Fetch Unit:
        Area = 4.10413 mm^2
        Peak Dynamic = 5.33376 W
        Subthreshold Leakage = 0.755383 W
        Subthreshold Leakage with power gating = 0.335447 W
        Gate Leakage = 0.0414628 W
        Runtime Dynamic = 0.349711 W

          Instruction Cache:
            Area = 1.3904 mm^2
            Peak Dynamic = 2.89998 W
            Subthreshold Leakage = 0.189818 W
            Subthreshold Leakage with power gating = 0.10729 W
            Gate Leakage = 0.0123459 W
            Runtime Dynamic = 0.0255694 W

          Branch Target Buffer:
            Area = 0.64954 mm^2
            Peak Dynamic = 0.177867 W
            Subthreshold Leakage = 0.0811682 W
            Subthreshold Leakage with power gating = 0.0435357 W
            Gate Leakage = 0.00272758 W
            Runtime Dynamic = 0.0162363 W

          Branch Predictor:
            Area = 0.138516 mm^2
            Peak Dynamic = 0.0597838 W
            Subthreshold Leakage = 0.0199703 W
            Subthreshold Leakage with power gating = 0.0103282 W
            Gate Leakage = 0.000757657 W
            Runtime Dynamic = 0.00595235 W

              Global Predictor:
                Area = 0.0435221 mm^2
                Peak Dynamic = 0.0168831 W
                Subthreshold Leakage = 0.00759719 W
                Subthreshold Leakage with power gating = 0.0039236 W
                Gate Leakage = 0.000278362 W
                Runtime Dynamic = 0.00171388 W

              Local Predictor:
              L1_Local Predictor:
                Area = 0.0257064 mm^2
                Peak Dynamic = 0.0142575 W
                Subthreshold Leakage = 0.00384344 W
                Subthreshold Leakage with power gating = 0.00198631 W
                Gate Leakage = 0.000154548 W
                Runtime Dynamic = 0.00149829 W

              L2_Local Predictor:
                Area = 0.0151917 mm^2
                Peak Dynamic = 0.00527447 W
                Subthreshold Leakage = 0.00181347 W
                Subthreshold Leakage with power gating = 0.000957045 W
                Gate Leakage = 8.00196e-05 W
                Runtime Dynamic = 0.000583016 W

              Chooser:
                Area = 0.0435221 mm^2
                Peak Dynamic = 0.0168831 W
                Subthreshold Leakage = 0.00759719 W
                Subthreshold Leakage with power gating = 0.0039236 W
                Gate Leakage = 0.000278362 W
                Runtime Dynamic = 0.00171388 W

              RAS:
                Area = 0.0105732 mm^2
                Peak Dynamic = 0.0117602 W
                Subthreshold Leakage = 0.000932505 W
                Subthreshold Leakage with power gating = 0.000494733 W
                Gate Leakage = 4.63858e-05 W
                Runtime Dynamic = 0.0010263 W

          Instruction Buffer:
            Area = 0.0226323 mm^2
            Peak Dynamic = 0.606827 W
            Subthreshold Leakage = 0.00151885 W
            Subthreshold Leakage with power gating = 0.000701682 W
            Gate Leakage = 6.83558e-05 W
            Runtime Dynamic = 0.068681 W

          Instruction Decoder:
            Area = 1.85799 mm^2
            Peak Dynamic = 1.37404 W
            Subthreshold Leakage = 0.442943 W
            Subthreshold Leakage with power gating = 0.166104 W
            Gate Leakage = 0.0222493 W
            Runtime Dynamic = 0.233272 W

      Renaming Unit:
        Area = 0.369768 mm^2
        Peak Dynamic = 4.56169 W
        Subthreshold Leakage = 0.070483 W
        Subthreshold Leakage with power gating = 0.0362779 W
        Gate Leakage = 0.00863632 W
        Runtime Dynamic = 0.353277 W

          Int Front End RAT:
            Area = 0.114751 mm^2
            Peak Dynamic = 0.86945 W
            Subthreshold Leakage = 0.00611897 W
            Subthreshold Leakage with power gating = 0.00348781 W
            Gate Leakage = 0.00038343 W
            Runtime Dynamic = 0.134758 W

          FP Front End RAT:
            Area = 0.168486 mm^2
            Peak Dynamic = 3.33511 W
            Subthreshold Leakage = 0.0437281 W
            Subthreshold Leakage with power gating = 0.024925 W
            Gate Leakage = 0.00489731 W
            Runtime Dynamic = 0.202455 W

          Free List:
            Area = 0.0414755 mm^2
            Peak Dynamic = 0.0401324 W
            Subthreshold Leakage = 0.000670426 W
            Subthreshold Leakage with power gating = 0.000377987 W
            Gate Leakage = 4.15911e-05 W
            Runtime Dynamic = 0.0160628 W

      Load Store Unit:
        Area = 3.20041 mm^2
        Peak Dynamic = 2.79259 W
        Subthreshold Leakage = 0.32315 W
        Subthreshold Leakage with power gating = 0.176854 W
        Gate Leakage = 0.0235039 W
        Runtime Dynamic = 0.563736 W

          Data Cache:
            Area = 2.20958 mm^2
            Peak Dynamic = 2.46941 W
            Subthreshold Leakage = 0.259202 W
            Subthreshold Leakage with power gating = 0.144298 W
            Gate Leakage = 0.0162912 W
            Runtime Dynamic = 0.15944 W

          LoadQ:
            Area = 0.0836782 mm^2
            Peak Dynamic = 0.068159 W
            Subthreshold Leakage = 0.00941961 W
            Subthreshold Leakage with power gating = 0.00536918 W
            Gate Leakage = 0.00059896 W
            Runtime Dynamic = 0.068159 W

          StoreQ:
            Area = 0.322079 mm^2
            Peak Dynamic = 0.168069 W
            Subthreshold Leakage = 0.0345621 W
            Subthreshold Leakage with power gating = 0.0197004 W
            Gate Leakage = 0.00329971 W
            Runtime Dynamic = 0.336137 W

      Memory Management Unit:
        Area = 0.434579 mm^2
        Peak Dynamic = 0.533249 W
        Subthreshold Leakage = 0.0769113 W
        Subthreshold Leakage with power gating = 0.0399462 W
        Gate Leakage = 0.00813591 W
        Runtime Dynamic = 0.102373 W

          Itlb:
            Area = 0.301552 mm^2
            Peak Dynamic = 0.27163 W
            Subthreshold Leakage = 0.0413758 W
            Subthreshold Leakage with power gating = 0.0235842 W
            Gate Leakage = 0.00393464 W
            Runtime Dynamic = 0.0400989 W

          Dtlb:
            Area = 0.0879726 mm^2
            Peak Dynamic = 0.0596481 W
            Subthreshold Leakage = 0.0155699 W
            Subthreshold Leakage with power gating = 0.00887485 W
            Gate Leakage = 0.00088729 W
            Runtime Dynamic = 0.0622738 W

      Execution Unit:
        Area = 8.2042 mm^2
        Peak Dynamic = 5.81007 W
        Subthreshold Leakage = 1.83518 W
        Subthreshold Leakage with power gating = 0.709678 W
        Gate Leakage = 0.122718 W
        Runtime Dynamic = 2.6331 W

          Register Files:
            Area = 0.570804 mm^2
            Peak Dynamic = 0.143322 W
            Subthreshold Leakage = 0.0101387 W
            Subthreshold Leakage with power gating = 0.00423643 W
            Gate Leakage = 0.000622708 W
            Runtime Dynamic = 0.0811044 W

              Integer RF:
                Area = 0.362673 mm^2
                Peak Dynamic = 0.0852917 W
                Subthreshold Leakage = 0.00614175 W
                Subthreshold Leakage with power gating = 0.00246675 W
                Gate Leakage = 0.00038992 W
                Runtime Dynamic = 0.0714441 W

              Floating Point RF:
                Area = 0.208131 mm^2
                Peak Dynamic = 0.0580304 W
                Subthreshold Leakage = 0.00399698 W
                Subthreshold Leakage with power gating = 0.00176968 W
                Gate Leakage = 0.000232788 W
                Runtime Dynamic = 0.00966033 W

          Instruction Scheduler:
            Area = 2.17927 mm^2
            Peak Dynamic = 4.84781 W
            Subthreshold Leakage = 0.114878 W
            Subthreshold Leakage with power gating = 0.0641291 W
            Gate Leakage = 0.00730101 W
            Runtime Dynamic = 1.01975 W

              Instruction Window:
                Area = 1.00996 mm^2
                Peak Dynamic = 2.07911 W
                Subthreshold Leakage = 0.0800117 W
                Subthreshold Leakage with power gating = 0.0455351 W
                Gate Leakage = 0.00529112 W
                Runtime Dynamic = 0.461458 W

              FP Instruction Window:
                Area = 0.328073 mm^2
                Peak Dynamic = 1.20978 W
                Subthreshold Leakage = 0.017004 W
                Subthreshold Leakage with power gating = 0.00962066 W
                Gate Leakage = 0.00115349 W
                Runtime Dynamic = 0.266486 W

              ROB:
                Area = 0.841232 mm^2
                Peak Dynamic = 1.55892 W
                Subthreshold Leakage = 0.0178624 W
                Subthreshold Leakage with power gating = 0.00897339 W
                Gate Leakage = 0.000856399 W
                Runtime Dynamic = 0.291801 W

          Integer ALUs (Count: 6 ):
            Area = 0.47087 mm^2
            Peak Dynamic = 0.216318 W
            Subthreshold Leakage = 0.40222 W
            Subthreshold Leakage with power gating = 0.150833 W
            Gate Leakage = 0.0265291 W
            Runtime Dynamic = 0.300214 W

          Floating Point Units (FPUs) (Count: 2 ):
            Area = 4.6585 mm^2
            Peak Dynamic = 0.307167 W
            Subthreshold Leakage = 0.994829 W
            Subthreshold Leakage with power gating = 0.373061 W
            Gate Leakage = 0.0656156 W
            Runtime Dynamic = 0.439161 W

          Complex ALUs (Mul/Div) (Count: 1 ):
            Area = 0.235435 mm^2
            Peak Dynamic = 0.0470144 W
            Subthreshold Leakage = 0.20111 W
            Subthreshold Leakage with power gating = 0.0754163 W
            Gate Leakage = 0.0132646 W
            Runtime Dynamic = 0.239616 W

          Results Broadcast Bus:
            Area Overhead = 0.0442632 mm^2
            Peak Dynamic = 0.21898 W
            Subthreshold Leakage = 0.0920413 W
            Subthreshold Leakage with power gating = 0.0345155 W
            Gate Leakage = 0.00607074 W
            Runtime Dynamic = 0.553263 W

    L2
    Area = 4.53318 mm^2
    Peak Dynamic = 0.246729 W
    Subthreshold Leakage = 0.834142 W
    Subthreshold Leakage with power gating = 0.401066 W
    Gate Leakage = 0.015464 W
    Runtime Dynamic = 0.0525509 W

*****************************************************************************************
Core:
      Area = 25.243 mm^2
      Peak Dynamic = 19.4283 W
      Subthreshold Leakage = 5.77309 W
      Subthreshold Leakage with power gating = 2.40346 W
      Gate Leakage = 0.343777 W
      Runtime Dynamic = 4.14252 W

      Instruction Fetch Unit:
        Area = 4.10413 mm^2
        Peak Dynamic = 5.40719 W
        Subthreshold Leakage = 0.755383 W
        Subthreshold Leakage with power gating = 0.335447 W
        Gate Leakage = 0.0414628 W
        Runtime Dynamic = 0.358016 W

          Instruction Cache:
            Area = 1.3904 mm^2
            Peak Dynamic = 2.96833 W
            Subthreshold Leakage = 0.189818 W
            Subthreshold Leakage with power gating = 0.10729 W
            Gate Leakage = 0.0123459 W
            Runtime Dynamic = 0.0263184 W

          Branch Target Buffer:
            Area = 0.64954 mm^2
            Peak Dynamic = 0.177867 W
            Subthreshold Leakage = 0.0811682 W
            Subthreshold Leakage with power gating = 0.0435357 W
            Gate Leakage = 0.00272758 W
            Runtime Dynamic = 0.0165539 W

          Branch Predictor:
            Area = 0.138516 mm^2
            Peak Dynamic = 0.0597838 W
            Subthreshold Leakage = 0.0199703 W
            Subthreshold Leakage with power gating = 0.0103282 W
            Gate Leakage = 0.000757657 W
            Runtime Dynamic = 0.00607421 W

              Global Predictor:
                Area = 0.0435221 mm^2
                Peak Dynamic = 0.0168831 W
                Subthreshold Leakage = 0.00759719 W
                Subthreshold Leakage with power gating = 0.0039236 W
                Gate Leakage = 0.000278362 W
                Runtime Dynamic = 0.00174783 W

              Local Predictor:
              L1_Local Predictor:
                Area = 0.0257064 mm^2
                Peak Dynamic = 0.0142575 W
                Subthreshold Leakage = 0.00384344 W
                Subthreshold Leakage with power gating = 0.00198631 W
                Gate Leakage = 0.000154548 W
                Runtime Dynamic = 0.00152807 W

              L2_Local Predictor:
                Area = 0.0151917 mm^2
                Peak Dynamic = 0.00527447 W
                Subthreshold Leakage = 0.00181347 W
                Subthreshold Leakage with power gating = 0.000957045 W
                Gate Leakage = 8.00196e-05 W
                Runtime Dynamic = 0.000594664 W

              Chooser:
                Area = 0.0435221 mm^2
                Peak Dynamic = 0.0168831 W
                Subthreshold Leakage = 0.00759719 W
                Subthreshold Leakage with power gating = 0.0039236 W
                Gate Leakage = 0.000278362 W
                Runtime Dynamic = 0.00174783 W

              RAS:
                Area = 0.0105732 mm^2
                Peak Dynamic = 0.0117602 W
                Subthreshold Leakage = 0.000932505 W
                Subthreshold Leakage with power gating = 0.000494733 W
                Gate Leakage = 4.63858e-05 W
                Runtime Dynamic = 0.00105049 W

          Instruction Buffer:
            Area = 0.0226323 mm^2
            Peak Dynamic = 0.606827 W
            Subthreshold Leakage = 0.00151885 W
            Subthreshold Leakage with power gating = 0.000701682 W
            Gate Leakage = 6.83558e-05 W
            Runtime Dynamic = 0.0702997 W

          Instruction Decoder:
            Area = 1.85799 mm^2
            Peak Dynamic = 1.37404 W
            Subthreshold Leakage = 0.442943 W
            Subthreshold Leakage with power gating = 0.166104 W
            Gate Leakage = 0.0222493 W
            Runtime Dynamic = 0.238769 W

      Renaming Unit:
        Area = 0.369768 mm^2
        Peak Dynamic = 4.56169 W
        Subthreshold Leakage = 0.070483 W
        Subthreshold Leakage with power gating = 0.0362779 W
        Gate Leakage = 0.00863632 W
        Runtime Dynamic = 0.365934 W

          Int Front End RAT:
            Area = 0.114751 mm^2
            Peak Dynamic = 0.86945 W
            Subthreshold Leakage = 0.00611897 W
            Subthreshold Leakage with power gating = 0.00348781 W
            Gate Leakage = 0.00038343 W
            Runtime Dynamic = 0.137797 W

          FP Front End RAT:
            Area = 0.168486 mm^2
            Peak Dynamic = 3.33511 W
            Subthreshold Leakage = 0.0437281 W
            Subthreshold Leakage with power gating = 0.024925 W
            Gate Leakage = 0.00489731 W
            Runtime Dynamic = 0.211643 W

          Free List:
            Area = 0.0414755 mm^2
            Peak Dynamic = 0.0401324 W
            Subthreshold Leakage = 0.000670426 W
            Subthreshold Leakage with power gating = 0.000377987 W
            Gate Leakage = 4.15911e-05 W
            Runtime Dynamic = 0.0164945 W

      Load Store Unit:
        Area = 3.20041 mm^2
        Peak Dynamic = 2.83013 W
        Subthreshold Leakage = 0.32315 W
        Subthreshold Leakage with power gating = 0.176854 W
        Gate Leakage = 0.0235039 W
        Runtime Dynamic = 0.575613 W

          Data Cache:
            Area = 2.20958 mm^2
            Peak Dynamic = 2.49916 W
            Subthreshold Leakage = 0.259202 W
            Subthreshold Leakage with power gating = 0.144298 W
            Gate Leakage = 0.0162912 W
            Runtime Dynamic = 0.16156 W

          LoadQ:
            Area = 0.0836782 mm^2
            Peak Dynamic = 0.0698041 W
            Subthreshold Leakage = 0.00941961 W
            Subthreshold Leakage with power gating = 0.00536918 W
            Gate Leakage = 0.00059896 W
            Runtime Dynamic = 0.069804 W

          StoreQ:
            Area = 0.322079 mm^2
            Peak Dynamic = 0.172125 W
            Subthreshold Leakage = 0.0345621 W
            Subthreshold Leakage with power gating = 0.0197004 W
            Gate Leakage = 0.00329971 W
            Runtime Dynamic = 0.34425 W

      Memory Management Unit:
        Area = 0.434579 mm^2
        Peak Dynamic = 0.542139 W
        Subthreshold Leakage = 0.0769113 W
        Subthreshold Leakage with power gating = 0.0399462 W
        Gate Leakage = 0.00813591 W
        Runtime Dynamic = 0.104779 W

          Itlb:
            Area = 0.301552 mm^2
            Peak Dynamic = 0.278032 W
            Subthreshold Leakage = 0.0413758 W
            Subthreshold Leakage with power gating = 0.0235842 W
            Gate Leakage = 0.00393464 W
            Runtime Dynamic = 0.0410179 W

          Dtlb:
            Area = 0.0879726 mm^2
            Peak Dynamic = 0.0610878 W
            Subthreshold Leakage = 0.0155699 W
            Subthreshold Leakage with power gating = 0.00887485 W
            Gate Leakage = 0.00088729 W
            Runtime Dynamic = 0.0637608 W

      Execution Unit:
        Area = 8.2042 mm^2
        Peak Dynamic = 5.84091 W
        Subthreshold Leakage = 1.83518 W
        Subthreshold Leakage with power gating = 0.709678 W
        Gate Leakage = 0.122718 W
        Runtime Dynamic = 2.68612 W

          Register Files:
            Area = 0.570804 mm^2
            Peak Dynamic = 0.148105 W
            Subthreshold Leakage = 0.0101387 W
            Subthreshold Leakage with power gating = 0.00423643 W
            Gate Leakage = 0.000622708 W
            Runtime Dynamic = 0.0830159 W

              Integer RF:
                Area = 0.362673 mm^2
                Peak Dynamic = 0.0874413 W
                Subthreshold Leakage = 0.00614175 W
                Subthreshold Leakage with power gating = 0.00246675 W
                Gate Leakage = 0.00038992 W
                Runtime Dynamic = 0.0731279 W

              Floating Point RF:
                Area = 0.208131 mm^2
                Peak Dynamic = 0.060664 W
                Subthreshold Leakage = 0.00399698 W
                Subthreshold Leakage with power gating = 0.00176968 W
                Gate Leakage = 0.000232788 W
                Runtime Dynamic = 0.00988801 W

          Instruction Scheduler:
            Area = 2.17927 mm^2
            Peak Dynamic = 4.84781 W
            Subthreshold Leakage = 0.114878 W
            Subthreshold Leakage with power gating = 0.0641291 W
            Gate Leakage = 0.00730101 W
            Runtime Dynamic = 1.04411 W

              Instruction Window:
                Area = 1.00996 mm^2
                Peak Dynamic = 2.07911 W
                Subthreshold Leakage = 0.0800117 W
                Subthreshold Leakage with power gating = 0.0455351 W
                Gate Leakage = 0.00529112 W
                Runtime Dynamic = 0.472333 W

              FP Instruction Window:
                Area = 0.328073 mm^2
                Peak Dynamic = 1.20978 W
                Subthreshold Leakage = 0.017004 W
                Subthreshold Leakage with power gating = 0.00962066 W
                Gate Leakage = 0.00115349 W
                Runtime Dynamic = 0.272767 W

              ROB:
                Area = 0.841232 mm^2
                Peak Dynamic = 1.55892 W
                Subthreshold Leakage = 0.0178624 W
                Subthreshold Leakage with power gating = 0.00897339 W
                Gate Leakage = 0.000856399 W
                Runtime Dynamic = 0.29901 W

          Integer ALUs (Count: 6 ):
            Area = 0.47087 mm^2
            Peak Dynamic = 0.220388 W
            Subthreshold Leakage = 0.40222 W
            Subthreshold Leakage with power gating = 0.150833 W
            Gate Leakage = 0.0265291 W
            Runtime Dynamic = 0.30437 W

          Floating Point Units (FPUs) (Count: 2 ):
            Area = 4.6585 mm^2
            Peak Dynamic = 0.321107 W
            Subthreshold Leakage = 0.994829 W
            Subthreshold Leakage with power gating = 0.373061 W
            Gate Leakage = 0.0656156 W
            Runtime Dynamic = 0.445293 W

          Complex ALUs (Mul/Div) (Count: 1 ):
            Area = 0.235435 mm^2
            Peak Dynamic = 0.0488159 W
            Subthreshold Leakage = 0.20111 W
            Subthreshold Leakage with power gating = 0.0754163 W
            Gate Leakage = 0.0132646 W
            Runtime Dynamic = 0.241031 W

          Results Broadcast Bus:
            Area Overhead = 0.0442632 mm^2
            Peak Dynamic = 0.224668 W
            Subthreshold Leakage = 0.0920413 W
            Subthreshold Leakage with power gating = 0.0345155 W
            Gate Leakage = 0.00607074 W
            Runtime Dynamic = 0.568299 W

    L2
    Area = 4.53318 mm^2
    Peak Dynamic = 0.246256 W
    Subthreshold Leakage = 0.834142 W
    Subthreshold Leakage with power gating = 0.401066 W
    Gate Leakage = 0.015464 W
    Runtime Dynamic = 0.0520587 W

*****************************************************************************************
Core:
      Area = 25.243 mm^2
      Peak Dynamic = 19.3097 W
      Subthreshold Leakage = 5.77309 W
      Subthreshold Leakage with power gating = 2.40346 W
      Gate Leakage = 0.343777 W
      Runtime Dynamic = 4.07093 W

      Instruction Fetch Unit:
        Area = 4.10413 mm^2
        Peak Dynamic = 5.35637 W
        Subthreshold Leakage = 0.755383 W
        Subthreshold Leakage with power gating = 0.335447 W
        Gate Leakage = 0.0414628 W
        Runtime Dynamic = 0.351473 W

          Instruction Cache:
            Area = 1.3904 mm^2
            Peak Dynamic = 2.92103 W
            Subthreshold Leakage = 0.189818 W
            Subthreshold Leakage with power gating = 0.10729 W
            Gate Leakage = 0.0123459 W
            Runtime Dynamic = 0.0251088 W

          Branch Target Buffer:
            Area = 0.64954 mm^2
            Peak Dynamic = 0.177867 W
            Subthreshold Leakage = 0.0811682 W
            Subthreshold Leakage with power gating = 0.0435357 W
            Gate Leakage = 0.00272758 W
            Runtime Dynamic = 0.0162493 W

          Branch Predictor:
            Area = 0.138516 mm^2
            Peak Dynamic = 0.0597838 W
            Subthreshold Leakage = 0.0199703 W
            Subthreshold Leakage with power gating = 0.0103282 W
            Gate Leakage = 0.000757657 W
            Runtime Dynamic = 0.00597066 W

              Global Predictor:
                Area = 0.0435221 mm^2
                Peak Dynamic = 0.0168831 W
                Subthreshold Leakage = 0.00759719 W
                Subthreshold Leakage with power gating = 0.0039236 W
                Gate Leakage = 0.000278362 W
                Runtime Dynamic = 0.00171746 W

              Local Predictor:
              L1_Local Predictor:
                Area = 0.0257064 mm^2
                Peak Dynamic = 0.0142575 W
                Subthreshold Leakage = 0.00384344 W
                Subthreshold Leakage with power gating = 0.00198631 W
                Gate Leakage = 0.000154548 W
                Runtime Dynamic = 0.00150199 W

              L2_Local Predictor:
                Area = 0.0151917 mm^2
                Peak Dynamic = 0.00527447 W
                Subthreshold Leakage = 0.00181347 W
                Subthreshold Leakage with power gating = 0.000957045 W
                Gate Leakage = 8.00196e-05 W
                Runtime Dynamic = 0.000584775 W

              Chooser:
                Area = 0.0435221 mm^2
                Peak Dynamic = 0.0168831 W
                Subthreshold Leakage = 0.00759719 W
                Subthreshold Leakage with power gating = 0.0039236 W
                Gate Leakage = 0.000278362 W
                Runtime Dynamic = 0.00171746 W

              RAS:
                Area = 0.0105732 mm^2
                Peak Dynamic = 0.0117602 W
                Subthreshold Leakage = 0.000932505 W
                Subthreshold Leakage with power gating = 0.000494733 W
                Gate Leakage = 4.63858e-05 W
                Runtime Dynamic = 0.00103375 W

          Instruction Buffer:
            Area = 0.0226323 mm^2
            Peak Dynamic = 0.606827 W
            Subthreshold Leakage = 0.00151885 W
            Subthreshold Leakage with power gating = 0.000701682 W
            Gate Leakage = 6.83558e-05 W
            Runtime Dynamic = 0.0691794 W

          Instruction Decoder:
            Area = 1.85799 mm^2
            Peak Dynamic = 1.37404 W
            Subthreshold Leakage = 0.442943 W
            Subthreshold Leakage with power gating = 0.166104 W
            Gate Leakage = 0.0222493 W
            Runtime Dynamic = 0.234964 W

      Renaming Unit:
        Area = 0.369768 mm^2
        Peak Dynamic = 4.56169 W
        Subthreshold Leakage = 0.070483 W
        Subthreshold Leakage with power gating = 0.0362779 W
        Gate Leakage = 0.00863632 W
        Runtime Dynamic = 0.353456 W

          Int Front End RAT:
            Area = 0.114751 mm^2
            Peak Dynamic = 0.86945 W
            Subthreshold Leakage = 0.00611897 W
            Subthreshold Leakage with power gating = 0.00348781 W
            Gate Leakage = 0.00038343 W
            Runtime Dynamic = 0.135862 W

          FP Front End RAT:
            Area = 0.168486 mm^2
            Peak Dynamic = 3.33511 W
            Subthreshold Leakage = 0.0437281 W
            Subthreshold Leakage with power gating = 0.024925 W
            Gate Leakage = 0.00489731 W
            Runtime Dynamic = 0.201444 W

          Free List:
            Area = 0.0414755 mm^2
            Peak Dynamic = 0.0401324 W
            Subthreshold Leakage = 0.000670426 W
            Subthreshold Leakage with power gating = 0.000377987 W
            Gate Leakage = 4.15911e-05 W
            Runtime Dynamic = 0.0161496 W

      Load Store Unit:
        Area = 3.20041 mm^2
        Peak Dynamic = 2.80543 W
        Subthreshold Leakage = 0.32315 W
        Subthreshold Leakage with power gating = 0.176854 W
        Gate Leakage = 0.0235039 W
        Runtime Dynamic = 0.566936 W

          Data Cache:
            Area = 2.20958 mm^2
            Peak Dynamic = 2.47959 W
            Subthreshold Leakage = 0.259202 W
            Subthreshold Leakage with power gating = 0.144298 W
            Gate Leakage = 0.0162912 W
            Runtime Dynamic = 0.159302 W

          LoadQ:
            Area = 0.0836782 mm^2
            Peak Dynamic = 0.0687219 W
            Subthreshold Leakage = 0.00941961 W
            Subthreshold Leakage with power gating = 0.00536918 W
            Gate Leakage = 0.00059896 W
            Runtime Dynamic = 0.0687218 W

          StoreQ:
            Area = 0.322079 mm^2
            Peak Dynamic = 0.169456 W
            Subthreshold Leakage = 0.0345621 W
            Subthreshold Leakage with power gating = 0.0197004 W
            Gate Leakage = 0.00329971 W
            Runtime Dynamic = 0.338912 W

      Memory Management Unit:
        Area = 0.434579 mm^2
        Peak Dynamic = 0.536071 W
        Subthreshold Leakage = 0.0769113 W
        Subthreshold Leakage with power gating = 0.0399462 W
        Gate Leakage = 0.00813591 W
        Runtime Dynamic = 0.102037 W

          Itlb:
            Area = 0.301552 mm^2
            Peak Dynamic = 0.273601 W
            Subthreshold Leakage = 0.0413758 W
            Subthreshold Leakage with power gating = 0.0235842 W
            Gate Leakage = 0.00393464 W
            Runtime Dynamic = 0.0393681 W

          Dtlb:
            Area = 0.0879726 mm^2
            Peak Dynamic = 0.0601407 W
            Subthreshold Leakage = 0.0155699 W
            Subthreshold Leakage with power gating = 0.00887485 W
            Gate Leakage = 0.00088729 W
            Runtime Dynamic = 0.062669 W

      Execution Unit:
        Area = 8.2042 mm^2
        Peak Dynamic = 5.81139 W
        Subthreshold Leakage = 1.83518 W
        Subthreshold Leakage with power gating = 0.709678 W
        Gate Leakage = 0.122718 W
        Runtime Dynamic = 2.64661 W

          Register Files:
            Area = 0.570804 mm^2
            Peak Dynamic = 0.143379 W
            Subthreshold Leakage = 0.0101387 W
            Subthreshold Leakage with power gating = 0.00423643 W
            Gate Leakage = 0.000622708 W
            Runtime Dynamic = 0.081693 W

              Integer RF:
                Area = 0.362673 mm^2
                Peak Dynamic = 0.0856381 W
                Subthreshold Leakage = 0.00614175 W
                Subthreshold Leakage with power gating = 0.00246675 W
                Gate Leakage = 0.00038992 W
                Runtime Dynamic = 0.0719625 W

              Floating Point RF:
                Area = 0.208131 mm^2
                Peak Dynamic = 0.0577407 W
                Subthreshold Leakage = 0.00399698 W
                Subthreshold Leakage with power gating = 0.00176968 W
                Gate Leakage = 0.000232788 W
                Runtime Dynamic = 0.00973043 W

          Instruction Scheduler:
            Area = 2.17927 mm^2
            Peak Dynamic = 4.84781 W
            Subthreshold Leakage = 0.114878 W
            Subthreshold Leakage with power gating = 0.0641291 W
            Gate Leakage = 0.00730101 W
            Runtime Dynamic = 1.02733 W

              Instruction Window:
                Area = 1.00996 mm^2
                Peak Dynamic = 2.07911 W
                Subthreshold Leakage = 0.0800117 W
                Subthreshold Leakage with power gating = 0.0455351 W
                Gate Leakage = 0.00529112 W
                Runtime Dynamic = 0.464806 W

              FP Instruction Window:
                Area = 0.328073 mm^2
                Peak Dynamic = 1.20978 W
                Subthreshold Leakage = 0.017004 W
                Subthreshold Leakage with power gating = 0.00962066 W
                Gate Leakage = 0.00115349 W
                Runtime Dynamic = 0.26842 W

              ROB:
                Area = 0.841232 mm^2
                Peak Dynamic = 1.55892 W
                Subthreshold Leakage = 0.0178624 W
                Subthreshold Leakage with power gating = 0.00897339 W
                Gate Leakage = 0.000856399 W
                Runtime Dynamic = 0.294104 W

          Integer ALUs (Count: 6 ):
            Area = 0.47087 mm^2
            Peak Dynamic = 0.218463 W
            Subthreshold Leakage = 0.40222 W
            Subthreshold Leakage with power gating = 0.150833 W
            Gate Leakage = 0.0265291 W
            Runtime Dynamic = 0.302604 W

          Floating Point Units (FPUs) (Count: 2 ):
            Area = 4.6585 mm^2
            Peak Dynamic = 0.305633 W
            Subthreshold Leakage = 0.994829 W
            Subthreshold Leakage with power gating = 0.373061 W
            Gate Leakage = 0.0656156 W
            Runtime Dynamic = 0.438486 W

          Complex ALUs (Mul/Div) (Count: 1 ):
            Area = 0.235435 mm^2
            Peak Dynamic = 0.0466393 W
            Subthreshold Leakage = 0.20111 W
            Subthreshold Leakage with power gating = 0.0754163 W
            Gate Leakage = 0.0132646 W
            Runtime Dynamic = 0.239321 W

          Results Broadcast Bus:
            Area Overhead = 0.0442632 mm^2
            Peak Dynamic = 0.219714 W
            Subthreshold Leakage = 0.0920413 W
            Subthreshold Leakage with power gating = 0.0345155 W
            Gate Leakage = 0.00607074 W
            Runtime Dynamic = 0.557179 W

    L2
    Area = 4.53318 mm^2
    Peak Dynamic = 0.238775 W
    Subthreshold Leakage = 0.834142 W
    Subthreshold Leakage with power gating = 0.401066 W
    Gate Leakage = 0.015464 W
    Runtime Dynamic = 0.0504172 W

*****************************************************************************************
      L3
      Area = 61.9075 mm^2
      Peak Dynamic = 0.0617632 W
      Subthreshold Leakage = 6.80085 W
      Subthreshold Leakage with power gating = 3.32364 W
      Gate Leakage = 0.0484137 W
      Runtime Dynamic = 0.0352202 W

*****************************************************************************************
BUSES
      Area = 1.34036 mm^2
      Peak Dynamic = 0 W
      Subthreshold Leakage = 0.0695897 W
      Subthreshold Leakage with power gating = 0.0260961 W
      Gate Leakage = 0.00667341 W
      Runtime Dynamic = 0 W

      Bus: 
        Area = 1.34036 mm^2
        Peak Dynamic = 0 W
        Subthreshold Leakage = 0.0695897 W
        Subthreshold Leakage with power gating = 0.0260961 W
        Gate Leakage = 0.00667341 W
        Runtime Dynamic = 0 W

*****************************************************************************************
